@<TRIPOS>MOLECULE
ligand513
71 74 1 0 0 
SMALL
USER_CHARGES


@<TRIPOS>ATOM
  1 C1       6.3480    -7.5080    33.2000 C.3   1 LIG   0.0000 
  2 C5       6.2830    -6.6860    31.9240 C.2   1 LIG   0.0000 
  3 O6       6.7580    -5.5850    31.8940 O.2   1 LIG   0.0000 
  4 N7       5.6810    -7.2030    30.8060 N.am  1 LIG   0.0000 
  5 C9       5.6180    -6.4080    29.5710 C.3   1 LIG   0.0000 
  6 C12      7.0260    -6.0320    29.1390 C.3   1 LIG   0.0000 
  7 C15      6.9620    -4.8630    28.1680 C.2   1 LIG   0.0000 
  8 C16      5.9460    -3.9550    28.0940 C.2   1 LIG   0.0000 
  9 N18      6.2570    -3.0700    27.1030 N.pl3 1 LIG   0.0000 
 10 C20      7.4620    -3.4230    26.5640 C.ar  1 LIG   0.0000 
 11 C21      8.1810    -2.8260    25.5360 C.ar  1 LIG   0.0000 
 12 C22      7.6440    -1.5880    24.8360 C.3   1 LIG   0.0000 
 13 C23      8.4850    -0.3830    25.2240 C.3   1 LIG   0.0000 
 14 C26      9.8240    -0.4480    24.5090 C.3   1 LIG   0.0000 
 15 C29     10.4070     0.9520    24.3960 C.ar  1 LIG   0.0000 
 16 C30     11.7760     1.1090    24.2010 C.ar  1 LIG   0.0000 
 17 C32     12.3140     2.3870    24.0950 C.ar  1 LIG   0.0000 
 18 C34     11.4750     3.4930    24.1850 C.ar  1 LIG   0.0000 
 19 C35     12.0580     4.8920    24.0700 C.3   1 LIG   0.0000 
 20 F36     13.3000     4.8170    23.6010 F     1 LIG   0.0000 
 21 F37     11.3130     5.6150    23.2380 F     1 LIG   0.0000 
 22 F38     12.0700     5.4680    25.2680 F     1 LIG   0.0000 
 23 C39     10.1070     3.3370    24.3810 C.ar  1 LIG   0.0000 
 24 C41      9.5690     2.0580    24.4880 C.ar  1 LIG   0.0000 
 25 N43      7.7070    -1.7820    23.3810 N.4   1 LIG   1.0000 
 26 C44      6.9560    -3.0120    23.0780 C.3   1 LIG   0.0000 
 27 C47      6.9100    -3.2950    21.5840 C.3   1 LIG   0.0000 
 28 N50      6.5860    -2.0830    20.8140 N.am  1 LIG   0.0000 
 29 C51      5.8520    -2.2200    19.6310 C.2   1 LIG   0.0000 
 30 O52      5.5020    -3.3080    19.2650 O.2   1 LIG   0.0000 
 31 C53      5.4980    -0.9920    18.8090 C.3   1 LIG   0.0000 
 32 CL56     6.9460     0.0220    18.6030 Cl    1 LIG   0.0000 
 33 C57      6.9910    -0.7360    21.2480 C.3   1 LIG   0.0000 
 34 C60      7.0390    -0.6240    22.7640 C.3   1 LIG   0.0000 
 35 C63      9.4040    -3.3490    25.1300 C.ar  1 LIG   0.0000 
 36 C65      9.9020    -4.4830    25.7650 C.ar  1 LIG   0.0000 
 37 C67      9.1670    -5.0650    26.7920 C.ar  1 LIG   0.0000 
 38 C69      7.9430    -4.5440    27.2020 C.ar  1 LIG   0.0000 
 39 H16      5.1240    -3.9410    28.6620 H     1 LIG   0.0000 
 40 H18      5.6960    -2.2930    26.8180 H     1 LIG   0.0000 
 41 H63      9.9190    -2.9160    24.3900 H     1 LIG   0.0000 
 42 H65     10.7790    -4.8740    25.4860 H     1 LIG   0.0000 
 43 H67      9.5270    -5.8800    27.2470 H     1 LIG   0.0000 
 44 H30     12.3700     0.3070    24.1370 H     1 LIG   0.0000 
 45 H32     13.2970     2.5100    23.9560 H     1 LIG   0.0000 
 46 H39      9.5140     4.1390    24.4440 H     1 LIG   0.0000 
 47 H41      8.5870     1.9360    24.6300 H     1 LIG   0.0000 
 48 H11      5.9080    -8.3940    33.0500 H     1 LIG   0.0000 
 49 H12      7.3040    -7.6510    33.4570 H     1 LIG   0.0000 
 50 H13      5.8750    -7.0210    33.9350 H     1 LIG   0.0000 
 51 H91      5.0870    -5.5770    29.7360 H     1 LIG   0.0000 
 52 H92      5.1810    -6.9460    28.8510 H     1 LIG   0.0000 
 53 H121     7.5620    -5.7700    29.9410 H     1 LIG   0.0000 
 54 H122     7.4570    -6.8140    28.6900 H     1 LIG   0.0000 
 55 H22      6.6950    -1.4350    25.1120 H     1 LIG   0.0000 
 56 H231     8.6350    -0.3850    26.2130 H     1 LIG   0.0000 
 57 H232     8.0070     0.4550    24.9610 H     1 LIG   0.0000 
 58 H261    10.4510    -1.0290    25.0270 H     1 LIG   0.0000 
 59 H262     9.6950    -0.8300    23.5940 H     1 LIG   0.0000 
 60 H43      8.6550    -1.8560    23.0700 H     1 LIG   0.0000 
 61 H441     6.0210    -2.9110    23.4160 H     1 LIG   0.0000 
 62 H442     7.3970    -3.7820    23.5390 H     1 LIG   0.0000 
 63 H471     7.8020    -3.6370    21.2900 H     1 LIG   0.0000 
 64 H472     6.2120    -3.9890    21.4060 H     1 LIG   0.0000 
 65 H531     5.1600    -1.2770    17.9120 H     1 LIG   0.0000 
 66 H532     4.7890    -0.4680    19.2810 H     1 LIG   0.0000 
 67 H571     6.3350    -0.0700    20.8940 H     1 LIG   0.0000 
 68 H572     7.9000    -0.5370    20.8790 H     1 LIG   0.0000 
 69 H601     7.5390     0.2060    23.0110 H     1 LIG   0.0000 
 70 H602     6.1040    -0.5660    23.1140 H     1 LIG   0.0000 
 71 H7       5.2850    -8.1210    30.8310 H     1 LIG   0.0000 
@<TRIPOS>BOND
  1   1   2  1   
  2   1  48  1   
  3   1  49  1   
  4   1  50  1   
  5   2   3  2   
  6   2   4  am  
  7   4   5  1   
  8   4  71  1   
  9   5   6  1   
 10   5  51  1   
 11   5  52  1   
 12   6   7  1   
 13   6  53  1   
 14   6  54  1   
 15   7   8  2   
 16   7  38  1   
 17   8   9  1   
 18   8  39  1   
 19   9  10  1   
 20   9  40  1   
 21  10  11  ar  
 22  10  38  ar  
 23  11  12  1   
 24  11  35  ar  
 25  12  13  1   
 26  12  25  1   
 27  12  55  1   
 28  13  14  1   
 29  13  56  1   
 30  13  57  1   
 31  14  15  1   
 32  14  58  1   
 33  14  59  1   
 34  15  16  ar  
 35  15  24  ar  
 36  16  17  ar  
 37  16  44  1   
 38  17  18  ar  
 39  17  45  1   
 40  18  19  1   
 41  18  23  ar  
 42  19  20  1   
 43  19  21  1   
 44  19  22  1   
 45  23  24  ar  
 46  23  46  1   
 47  24  47  1   
 48  25  26  1   
 49  25  34  1   
 50  25  60  1   
 51  26  27  1   
 52  26  61  1   
 53  26  62  1   
 54  27  28  1   
 55  27  63  1   
 56  27  64  1   
 57  28  29  am  
 58  28  33  1   
 59  29  30  2   
 60  29  31  1   
 61  31  32  1   
 62  31  65  1   
 63  31  66  1   
 64  33  34  1   
 65  33  67  1   
 66  33  68  1   
 67  34  69  1   
 68  34  70  1   
 69  35  36  ar  
 70  35  41  1   
 71  36  37  ar  
 72  36  42  1   
 73  37  38  ar  
 74  37  43  1   
@<TRIPOS>SUBSTRUCTURE
  1 LIG  12 GROUP 4 **** **** 0
@<TRIPOS>PROPERTY_DATA
index	|	ligand513
Name	|	PAU-WEI-b9b-9
ChemPlp	|	-109.712
MM-GBSA Nwat=0	|	-42.2937
STDEV0	|	4.8564
MM-GBSA Nwat=30	|	-77.6467
STDEV30	|	7.3639
MM-GBSA Nwat=60	|	-93.0126
STDEV60	|	7.1343
ST.DEV < 10%	|	Y
RMSD LIG < 2	|	Y
DIST < 5	|	Y
DIST < 3.5	|	N

# MOE 2019.01 (io_trps.svl 2018.10)

@<TRIPOS>MOLECULE
ligand515
59 62 1 0 0 
SMALL
USER_CHARGES


@<TRIPOS>ATOM
  1 C1       5.0960    -6.8360    30.7920 C.3   1 LIG   0.0000 
  2 C5       5.8250    -5.9470    29.7970 C.2   1 LIG   0.0000 
  3 O6       6.4950    -5.0320    30.1880 O.2   1 LIG   0.0000 
  4 N7       5.7160    -6.1910    28.4530 N.am  1 LIG   0.0000 
  5 C9       6.4200    -5.3320    27.4910 C.3   1 LIG   0.0000 
  6 C12      7.9050    -5.3150    27.8180 C.3   1 LIG   0.0000 
  7 C15      8.6590    -4.5960    26.7110 C.2   1 LIG   0.0000 
  8 C16      9.4790    -5.1940    25.7980 C.2   1 LIG   0.0000 
  9 N18      9.9660    -4.2170    24.9800 N.pl3 1 LIG   0.0000 
 10 C20      9.4510    -3.0160    25.3790 C.ar  1 LIG   0.0000 
 11 C21      9.6570    -1.7460    24.8550 C.ar  1 LIG   0.0000 
 12 C22     10.5710    -1.5440    23.6580 C.3   1 LIG   0.0000 
 13 C23     11.2480    -0.1870    23.7600 C.2   1 LIG   0.0000 
 14 C24     11.8080     0.3620    24.8710 C.2   1 LIG   0.0000 
 15 C26     12.3750     1.6510    24.6890 C.2   1 LIG   0.0000 
 16 C28     12.2660     2.1250    23.4180 C.2   1 LIG   0.0000 
 17 BR29    12.9140     3.8440    22.7370 Br    1 LIG   0.0000 
 18 S30     11.4580     0.9430    22.5040 S.3   1 LIG   0.0000 
 19 N31      9.7790    -1.6050    22.4210 N.4   1 LIG   1.0000 
 20 C32      9.0630    -2.8920    22.4320 C.3   1 LIG   0.0000 
 21 C35      8.1640    -3.0510    21.2140 C.3   1 LIG   0.0000 
 22 N38      7.3840    -1.8310    20.9550 N.am  1 LIG   0.0000 
 23 C39      6.1040    -1.9620    20.4040 C.2   1 LIG   0.0000 
 24 O40      5.6680    -3.0520    20.1540 O.2   1 LIG   0.0000 
 25 C41      5.2680    -0.7250    20.1230 C.3   1 LIG   0.0000 
 26 CL44     5.8010     0.0170    18.5950 Cl    1 LIG   0.0000 
 27 C45      7.8900    -0.4840    21.2650 C.3   1 LIG   0.0000 
 28 C48      8.8130    -0.4950    22.4750 C.3   1 LIG   0.0000 
 29 C51      9.0320    -0.6370    25.4160 C.ar  1 LIG   0.0000 
 30 C53      8.1940    -0.8130    26.5130 C.ar  1 LIG   0.0000 
 31 C55      8.0000    -2.0930    27.0230 C.ar  1 LIG   0.0000 
 32 C57      8.6240    -3.2050    26.4630 C.ar  1 LIG   0.0000 
 33 H16      9.6840    -6.1710    25.7390 H     1 LIG   0.0000 
 34 H18     10.5960    -4.3560    24.2160 H     1 LIG   0.0000 
 35 H51      9.1830     0.2750    25.0360 H     1 LIG   0.0000 
 36 H53      7.7370    -0.0280    26.9300 H     1 LIG   0.0000 
 37 H55      7.3980    -2.2170    27.8110 H     1 LIG   0.0000 
 38 H24     11.8200    -0.1080    25.7530 H     1 LIG   0.0000 
 39 H26     12.8130     2.1640    25.4270 H     1 LIG   0.0000 
 40 H11      4.5900    -7.5430    30.2990 H     1 LIG   0.0000 
 41 H12      5.7610    -7.2670    31.4030 H     1 LIG   0.0000 
 42 H13      4.4600    -6.2830    31.3290 H     1 LIG   0.0000 
 43 H91      6.0570    -4.4020    27.5460 H     1 LIG   0.0000 
 44 H92      6.2870    -5.6880    26.5660 H     1 LIG   0.0000 
 45 H121     8.0500    -4.8390    28.6850 H     1 LIG   0.0000 
 46 H122     8.2400    -6.2540    27.8930 H     1 LIG   0.0000 
 47 H22     11.2660    -2.2630    23.6440 H     1 LIG   0.0000 
 48 H31     10.3660    -1.5290    21.6160 H     1 LIG   0.0000 
 49 H321     8.5000    -2.9420    23.2570 H     1 LIG   0.0000 
 50 H322     9.7320    -3.6340    22.4390 H     1 LIG   0.0000 
 51 H351     8.7330    -3.2490    20.4150 H     1 LIG   0.0000 
 52 H352     7.5350    -3.8120    21.3720 H     1 LIG   0.0000 
 53 H411     4.3040    -0.9840    20.0500 H     1 LIG   0.0000 
 54 H412     5.3810    -0.0690    20.8690 H     1 LIG   0.0000 
 55 H451     7.1150     0.1180    21.4530 H     1 LIG   0.0000 
 56 H452     8.3970    -0.1390    20.4750 H     1 LIG   0.0000 
 57 H481     9.3150     0.3690    22.5060 H     1 LIG   0.0000 
 58 H482     8.2590    -0.5890    23.3020 H     1 LIG   0.0000 
 59 H7       5.1580    -6.9540    28.1270 H     1 LIG   0.0000 
@<TRIPOS>BOND
  1   1   2  1   
  2   1  40  1   
  3   1  41  1   
  4   1  42  1   
  5   2   3  2   
  6   2   4  am  
  7   4   5  1   
  8   4  59  1   
  9   5   6  1   
 10   5  43  1   
 11   5  44  1   
 12   6   7  1   
 13   6  45  1   
 14   6  46  1   
 15   7   8  2   
 16   7  32  1   
 17   8   9  1   
 18   8  33  1   
 19   9  10  1   
 20   9  34  1   
 21  10  11  ar  
 22  10  32  ar  
 23  11  12  1   
 24  11  29  ar  
 25  12  13  1   
 26  12  19  1   
 27  12  47  1   
 28  13  14  2   
 29  13  18  1   
 30  14  15  1   
 31  14  38  1   
 32  15  16  2   
 33  15  39  1   
 34  16  17  1   
 35  16  18  1   
 36  19  20  1   
 37  19  28  1   
 38  19  48  1   
 39  20  21  1   
 40  20  49  1   
 41  20  50  1   
 42  21  22  1   
 43  21  51  1   
 44  21  52  1   
 45  22  23  am  
 46  22  27  1   
 47  23  24  2   
 48  23  25  1   
 49  25  26  1   
 50  25  53  1   
 51  25  54  1   
 52  27  28  1   
 53  27  55  1   
 54  27  56  1   
 55  28  57  1   
 56  28  58  1   
 57  29  30  ar  
 58  29  35  1   
 59  30  31  ar  
 60  30  36  1   
 61  31  32  ar  
 62  31  37  1   
@<TRIPOS>SUBSTRUCTURE
  1 LIG  11 GROUP 4 **** **** 0
@<TRIPOS>PROPERTY_DATA
index	|	ligand515
Name	|	PAU-WEI-f73-1
ChemPlp	|	-101.073
MM-GBSA Nwat=0	|	-38.8862
STDEV0	|	5.3589
MM-GBSA Nwat=30	|	-77.1676
STDEV30	|	5.5985
MM-GBSA Nwat=60	|	-84.0754
STDEV60	|	5.6447
ST.DEV < 10%	|	Y
RMSD LIG < 2	|	Y
DIST < 5	|	Y
DIST < 3.5	|	N

# MOE 2019.01 (io_trps.svl 2018.10)

@<TRIPOS>MOLECULE
ligand365
63 65 1 0 0 
SMALL
USER_CHARGES


@<TRIPOS>ATOM
  1 C1       8.1050     6.9660    22.9040 C.3   1 LIG   0.0000 
  2 C5       9.3140     6.3560    23.5930 C.3   1 LIG   0.0000 
  3 N8       9.7210     5.1360    22.8800 N.4   1 LIG   1.0000 
  4 C11     10.8490     4.5110    23.5840 C.3   1 LIG   0.0000 
  5 C12     10.9430     3.0400    23.2140 C.3   1 LIG   0.0000 
  6 C15     12.1080     2.3870    23.9410 C.3   1 LIG   0.0000 
  7 C16     12.2000     0.9180    23.5620 C.ar  1 LIG   0.0000 
  8 C17     13.2390     0.4850    22.7450 C.ar  1 LIG   0.0000 
  9 C19     13.3160    -0.8610    22.4020 C.ar  1 LIG   0.0000 
 10 C21     12.3700    -1.7700    22.8640 C.ar  1 LIG   0.0000 
 11 C23     11.3390    -1.3160    23.6800 C.ar  1 LIG   0.0000 
 12 C24     10.2970    -2.2950    24.1960 C.3   1 LIG   0.0000 
 13 N27      9.6030    -2.9170    23.0590 N.4   1 LIG   1.0000 
 14 C29      8.5080    -3.7290    23.6150 C.3   1 LIG   0.0000 
 15 C32      7.6820    -4.3910    22.5220 C.3   1 LIG   0.0000 
 16 N35      7.3580    -3.4460    21.4430 N.am  1 LIG   0.0000 
 17 C36      6.1400    -3.5950    20.7680 C.2   1 LIG   0.0000 
 18 O37      5.3890    -4.4790    21.0750 O.2   1 LIG   0.0000 
 19 C38      5.7710    -2.6380    19.6470 C.3   1 LIG   0.0000 
 20 CL41     5.8320    -0.9640    20.2510 Cl    1 LIG   0.0000 
 21 C42      8.2560    -2.3460    21.0550 C.3   1 LIG   0.0000 
 22 C45      9.0500    -1.8230    22.2430 C.3   1 LIG   0.0000 
 23 C48     11.2440     0.0260    24.0350 C.ar  1 LIG   0.0000 
 24 C50     13.4000     3.0980    23.5700 C.3   1 LIG   0.0000 
 25 C53     13.3160     4.5700    23.9400 C.3   1 LIG   0.0000 
 26 O54     14.5250     5.2310    23.5980 O.3   1 LIG   0.0000 
 27 C56     12.1450     5.2190    23.2210 C.3   1 LIG   0.0000 
 28 O57     12.0620     6.5930    23.5700 O.3   1 LIG   0.0000 
 29 C58     11.9500     6.7180    24.9800 C.1   1 LIG   0.0000 
 30 N59     11.8600     6.8180    26.1120 N.1   1 LIG   0.0000 
 31 H17     13.9220     1.1330    22.4080 H     1 LIG   0.0000 
 32 H19     14.0600    -1.1790    21.8150 H     1 LIG   0.0000 
 33 H21     12.4310    -2.7360    22.6140 H     1 LIG   0.0000 
 34 H48     10.5000     0.3440    24.6220 H     1 LIG   0.0000 
 35 H11      7.8280     7.7960    23.3890 H     1 LIG   0.0000 
 36 H12      8.3400     7.1950    21.9590 H     1 LIG   0.0000 
 37 H13      7.3510     6.3090    22.9100 H     1 LIG   0.0000 
 38 H51     10.0680     7.0130    23.5870 H     1 LIG   0.0000 
 39 H52      9.0790     6.1270    24.5380 H     1 LIG   0.0000 
 40 H81      8.9530     4.4970    22.8480 H     1 LIG   0.0000 
 41 H82      9.9980     5.3720    21.9490 H     1 LIG   0.0000 
 42 H11     10.7010     4.5890    24.5700 H     1 LIG   0.0000 
 43 H121    10.0930     2.5800    23.4720 H     1 LIG   0.0000 
 44 H122    11.0810     2.9560    22.2270 H     1 LIG   0.0000 
 45 H15     11.9630     2.4620    24.9280 H     1 LIG   0.0000 
 46 H241    10.7450    -3.0040    24.7410 H     1 LIG   0.0000 
 47 H242     9.6340    -1.8070    24.7640 H     1 LIG   0.0000 
 48 H27     10.2310    -3.4820    22.5230 H     1 LIG   0.0000 
 49 H291     7.9110    -3.1390    24.1580 H     1 LIG   0.0000 
 50 H292     8.8980    -4.4400    24.2010 H     1 LIG   0.0000 
 51 H321     8.2010    -5.1550    22.1400 H     1 LIG   0.0000 
 52 H322     6.8310    -4.7330    22.9210 H     1 LIG   0.0000 
 53 H381     6.4170    -2.7440    18.8920 H     1 LIG   0.0000 
 54 H382     4.8460    -2.8420    19.3260 H     1 LIG   0.0000 
 55 H421     7.7090    -1.5990    20.6760 H     1 LIG   0.0000 
 56 H422     8.8930    -2.6780    20.3600 H     1 LIG   0.0000 
 57 H451     9.8030    -1.2590    21.9050 H     1 LIG   0.0000 
 58 H452     8.4470    -1.2670    22.8150 H     1 LIG   0.0000 
 59 H501    14.1610     2.6760    24.0630 H     1 LIG   0.0000 
 60 H502    13.5520     3.0130    22.5860 H     1 LIG   0.0000 
 61 H53     13.1740     4.6470    24.9270 H     1 LIG   0.0000 
 62 H56     12.2890     5.1440    22.2350 H     1 LIG   0.0000 
 63 H54     14.3690     6.2180    23.5690 H     1 LIG   0.0000 
@<TRIPOS>BOND
  1   1   2  1   
  2   1  35  1   
  3   1  36  1   
  4   1  37  1   
  5   2   3  1   
  6   2  38  1   
  7   2  39  1   
  8   3   4  1   
  9   3  40  1   
 10   3  41  1   
 11   4   5  1   
 12   4  27  1   
 13   4  42  1   
 14   5   6  1   
 15   5  43  1   
 16   5  44  1   
 17   6   7  1   
 18   6  24  1   
 19   6  45  1   
 20   7   8  ar  
 21   7  23  ar  
 22   8   9  ar  
 23   8  31  1   
 24   9  10  ar  
 25   9  32  1   
 26  10  11  ar  
 27  10  33  1   
 28  11  12  1   
 29  11  23  ar  
 30  12  13  1   
 31  12  46  1   
 32  12  47  1   
 33  13  14  1   
 34  13  22  1   
 35  13  48  1   
 36  14  15  1   
 37  14  49  1   
 38  14  50  1   
 39  15  16  1   
 40  15  51  1   
 41  15  52  1   
 42  16  17  am  
 43  16  21  1   
 44  17  18  2   
 45  17  19  1   
 46  19  20  1   
 47  19  53  1   
 48  19  54  1   
 49  21  22  1   
 50  21  55  1   
 51  21  56  1   
 52  22  57  1   
 53  22  58  1   
 54  23  34  1   
 55  24  25  1   
 56  24  59  1   
 57  24  60  1   
 58  25  26  1   
 59  25  27  1   
 60  25  61  1   
 61  26  63  1   
 62  27  28  1   
 63  27  62  1   
 64  28  29  1   
 65  29  30  3   
@<TRIPOS>SUBSTRUCTURE
  1 LIG  23 GROUP 4 **** **** 0
@<TRIPOS>PROPERTY_DATA
index	|	ligand365
Name	|	MAK-UNK-af8-21
ChemPlp	|	-104.899
MM-GBSA Nwat=0	|	-27.5286
STDEV0	|	3.2128
MM-GBSA Nwat=30	|	-71.9748
STDEV30	|	5.0916
MM-GBSA Nwat=60	|	-81.1969
STDEV60	|	5.2883
ST.DEV < 10%	|	Y
RMSD LIG < 2	|	Y
DIST < 5	|	Y
DIST < 3.5	|	N

# MOE 2019.01 (io_trps.svl 2018.10)

@<TRIPOS>MOLECULE
ligand249
64 67 1 0 0 
SMALL
USER_CHARGES


@<TRIPOS>ATOM
  1 O1      12.7680     5.1840    22.3860 O.co2 1 LIG  -0.5000 
  2 C2      13.2780     5.1670    23.4830 C.2   1 LIG   0.0000 
  3 O3      14.5180     5.0600    23.5940 O.co2 1 LIG  -0.5000 
  4 C5      12.4110     5.2760    24.7270 C.3   1 LIG   0.0000 
  5 C8      10.9620     4.9990    24.3600 C.3   1 LIG   0.0000 
  6 C11     10.4110     6.1650    23.5560 C.3   1 LIG   0.0000 
  7 C14      8.9330     5.9370    23.2810 C.ar  1 LIG   0.0000 
  8 C15      7.9880     6.9150    23.5830 C.ar  1 LIG   0.0000 
  9 N17      6.6890     6.6930    23.3300 N.ar  1 LIG   0.0000 
 10 C18      6.2600     5.5430    22.7880 C.ar  1 LIG   0.0000 
 11 C20      7.1630     4.5340    22.4680 C.ar  1 LIG   0.0000 
 12 N21      6.7450     3.3250    21.9000 N.am  1 LIG   0.0000 
 13 C23      5.6580     2.6670    22.4130 C.2   1 LIG   0.0000 
 14 O24      5.0640     3.1280    23.3490 O.2   1 LIG   0.0000 
 15 N25      5.2480     1.4840    21.8580 N.am  1 LIG   0.0000 
 16 C27      5.9410     0.9460    20.7660 C.ar  1 LIG   0.0000 
 17 C28      5.5150     1.2170    19.4700 C.ar  1 LIG   0.0000 
 18 C30      6.2130     0.6750    18.3960 C.ar  1 LIG   0.0000 
 19 O31      5.8000     0.9370    17.1370 O.3   1 LIG   0.0000 
 20 C33      7.3270    -0.1320    18.5990 C.ar  1 LIG   0.0000 
 21 C35      7.7480    -0.3980    19.8980 C.ar  1 LIG   0.0000 
 22 C37      7.0560     0.1400    20.9780 C.ar  1 LIG   0.0000 
 23 C38      7.5220    -0.1560    22.3970 C.3   1 LIG   0.0000 
 24 C39      6.8420    -1.3790    22.9830 C.3   1 LIG   0.0000 
 25 N42      7.2090    -2.5480    22.1680 N.am  1 LIG   0.0000 
 26 C43      6.3180    -3.1800    21.2920 C.2   1 LIG   0.0000 
 27 O44      5.2010    -2.7600    21.1660 O.2   1 LIG   0.0000 
 28 C45      6.7660    -4.3980    20.5000 C.3   1 LIG   0.0000 
 29 CL48     6.1000    -5.8700    21.2470 Cl    1 LIG   0.0000 
 30 C49      8.5840    -3.0300    22.3500 C.3   1 LIG   0.0000 
 31 C52      9.4640    -1.7970    22.4810 C.ar  1 LIG   0.0000 
 32 C53     10.8300    -2.0310    22.5750 C.ar  1 LIG   0.0000 
 33 C55     11.7200    -0.9680    22.6380 C.ar  1 LIG   0.0000 
 34 C57     11.2360     0.3350    22.6140 C.ar  1 LIG   0.0000 
 35 O58     12.1000     1.3710    22.6550 O.3   1 LIG   0.0000 
 36 C60      9.8740     0.5980    22.5400 C.ar  1 LIG   0.0000 
 37 C62      9.0000    -0.4830    22.4810 C.ar  1 LIG   0.0000 
 38 C63      8.5160     4.7360    22.7180 C.ar  1 LIG   0.0000 
 39 H15      8.2780     7.7820    23.9880 H     1 LIG   0.0000 
 40 H18      5.2850     5.4100    22.6120 H     1 LIG   0.0000 
 41 H63      9.1820     4.0240    22.4960 H     1 LIG   0.0000 
 42 H28      4.7150     1.7960    19.3120 H     1 LIG   0.0000 
 43 H33      7.8210    -0.5160    17.8190 H     1 LIG   0.0000 
 44 H35      8.5490    -0.9770    20.0550 H     1 LIG   0.0000 
 45 H53     11.1740    -2.9700    22.5970 H     1 LIG   0.0000 
 46 H55     12.7040    -1.1380    22.7010 H     1 LIG   0.0000 
 47 H60      9.5310     1.5370    22.5280 H     1 LIG   0.0000 
 48 H51     12.4880     6.1980    25.1070 H     1 LIG   0.0000 
 49 H52     12.7160     4.6090    25.4060 H     1 LIG   0.0000 
 50 H81     10.9110     4.1630    23.8140 H     1 LIG   0.0000 
 51 H82     10.4230     4.8850    25.1950 H     1 LIG   0.0000 
 52 H111    10.5270     7.0120    24.0740 H     1 LIG   0.0000 
 53 H112    10.9040     6.2340    22.6880 H     1 LIG   0.0000 
 54 H38      7.3290     0.6350    22.9770 H     1 LIG   0.0000 
 55 H391     7.1460    -1.5160    23.9260 H     1 LIG   0.0000 
 56 H392     5.8500    -1.2540    22.9670 H     1 LIG   0.0000 
 57 H451     6.4370    -4.3230    19.5590 H     1 LIG   0.0000 
 58 H452     7.7650    -4.4460    20.5010 H     1 LIG   0.0000 
 59 H491     8.8670    -3.5730    21.5600 H     1 LIG   0.0000 
 60 H492     8.6470    -3.5880    23.1780 H     1 LIG   0.0000 
 61 H21      7.2400     2.9410    21.1210 H     1 LIG   0.0000 
 62 H25      4.4550     1.0040    22.2320 H     1 LIG   0.0000 
 63 H31      4.8610     1.2390    16.9720 H     1 LIG   0.0000 
 64 H58     11.7570     2.3100    22.6330 H     1 LIG   0.0000 
@<TRIPOS>BOND
  1   1   2  ar  
  2   2   3  ar  
  3   2   4  1   
  4   4   5  1   
  5   4  48  1   
  6   4  49  1   
  7   5   6  1   
  8   5  50  1   
  9   5  51  1   
 10   6   7  1   
 11   6  52  1   
 12   6  53  1   
 13   7   8  ar  
 14   7  38  ar  
 15   8   9  ar  
 16   8  39  1   
 17   9  10  ar  
 18  10  11  ar  
 19  10  40  1   
 20  11  12  1   
 21  11  38  ar  
 22  12  13  am  
 23  12  61  1   
 24  13  14  2   
 25  13  15  am  
 26  15  16  1   
 27  15  62  1   
 28  16  17  ar  
 29  16  22  ar  
 30  17  18  ar  
 31  17  42  1   
 32  18  19  1   
 33  18  20  ar  
 34  19  63  1   
 35  20  21  ar  
 36  20  43  1   
 37  21  22  ar  
 38  21  44  1   
 39  22  23  1   
 40  23  24  1   
 41  23  37  1   
 42  23  54  1   
 43  24  25  1   
 44  24  55  1   
 45  24  56  1   
 46  25  26  am  
 47  25  30  1   
 48  26  27  2   
 49  26  28  1   
 50  28  29  1   
 51  28  57  1   
 52  28  58  1   
 53  30  31  1   
 54  30  59  1   
 55  30  60  1   
 56  31  32  ar  
 57  31  37  ar  
 58  32  33  ar  
 59  32  45  1   
 60  33  34  ar  
 61  33  46  1   
 62  34  35  1   
 63  34  36  ar  
 64  35  64  1   
 65  36  37  ar  
 66  36  47  1   
 67  38  41  1   
@<TRIPOS>SUBSTRUCTURE
  1 LIG  36 GROUP 4 **** **** 0
@<TRIPOS>PROPERTY_DATA
index	|	ligand249
Name	|	JAN-LUN-04a-7
ChemPlp	|	-93.5547
MM-GBSA Nwat=0	|	-38.7691
STDEV0	|	3.6385
MM-GBSA Nwat=30	|	-71.4576
STDEV30	|	6.6709
MM-GBSA Nwat=60	|	-88.3512
STDEV60	|	7.1682
ST.DEV < 10%	|	Y
RMSD LIG < 2	|	Y
DIST < 5	|	Y
DIST < 3.5	|	N

# MOE 2019.01 (io_trps.svl 2018.10)

@<TRIPOS>MOLECULE
ligand205
62 64 1 0 0 
SMALL
NO_CHARGES


@<TRIPOS>ATOM
  1 C1      13.3490     5.9830    22.0770 C.3   1 LIG   0.0000 
  2 C5      13.7660     5.3700    23.4040 C.2   1 LIG   0.0000 
  3 O6      14.7980     4.7640    23.4870 O.2   1 LIG   0.0000 
  4 N7      12.9630     5.5090    24.5060 N.am  1 LIG   0.0000 
  5 C9      11.6990     6.2520    24.4050 C.3   1 LIG   0.0000 
  6 C12     10.7410     5.5000    23.4950 C.3   1 LIG   0.0000 
  7 C15     10.4750     4.1180    24.0700 C.2   1 LIG   0.0000 
  8 C16      9.4170     3.7860    24.8660 C.2   1 LIG   0.0000 
  9 N18      9.5340     2.4630    25.1750 N.pl3 1 LIG   0.0000 
 10 C20     10.6570     1.9710    24.5720 C.ar  1 LIG   0.0000 
 11 C21     11.1850     0.6860    24.5970 C.ar  1 LIG   0.0000 
 12 C22     10.4910    -0.4180    25.3770 C.3   1 LIG   0.0000 
 13 C25      9.9590    -1.4640    24.4110 C.3   1 LIG   0.0000 
 14 C28      9.3510    -2.6160    25.1950 C.3   1 LIG   0.0000 
 15 C31      8.6770    -3.5820    24.2340 C.3   1 LIG   0.0000 
 16 C32      7.6310    -2.8240    23.4330 C.3   1 LIG   0.0000 
 17 N35      7.0000    -3.7760    22.5080 N.am  1 LIG   0.0000 
 18 C36      6.4560    -3.3390    21.2950 C.2   1 LIG   0.0000 
 19 O37      5.9430    -4.1260    20.5480 O.2   1 LIG   0.0000 
 20 C38      6.5160    -1.8660    20.9220 C.3   1 LIG   0.0000 
 21 CL41     5.8000    -1.6330    19.3090 Cl    1 LIG   0.0000 
 22 C42      6.8970    -5.2020    22.8500 C.3   1 LIG   0.0000 
 23 C45      6.8060    -5.3100    24.3630 C.3   1 LIG   0.0000 
 24 N48      7.9990    -4.6780    24.9450 N.am  1 LIG   0.0000 
 25 C49      8.4660    -5.1510    26.1770 C.2   1 LIG   0.0000 
 26 C50      9.7000    -4.5310    26.8110 C.3   1 LIG   0.0000 
 27 O54      7.8910    -6.0470    26.7320 O.2   1 LIG   0.0000 
 28 C55     12.3560     0.3870    23.9100 C.ar  1 LIG   0.0000 
 29 C57     12.9980     1.3930    23.1940 C.ar  1 LIG   0.0000 
 30 C59     12.4540     2.6730    23.1810 C.ar  1 LIG   0.0000 
 31 C61     11.2810     2.9750    23.8670 C.ar  1 LIG   0.0000 
 32 H16      8.6890     4.4020    25.1680 H     1 LIG   0.0000 
 33 H18      8.9020     1.9400    25.7470 H     1 LIG   0.0000 
 34 H55     12.7330    -0.5390    23.9300 H     1 LIG   0.0000 
 35 H57     13.8420     1.1980    22.6940 H     1 LIG   0.0000 
 36 H59     12.9160     3.3940    22.6650 H     1 LIG   0.0000 
 37 H11     12.4700     6.4480    22.1870 H     1 LIG   0.0000 
 38 H12     14.0400     6.6420    21.7830 H     1 LIG   0.0000 
 39 H13     13.2610     5.2620    21.3900 H     1 LIG   0.0000 
 40 H91     11.8750     7.1600    24.0250 H     1 LIG   0.0000 
 41 H92     11.2920     6.3430    25.3140 H     1 LIG   0.0000 
 42 H121     9.8800     6.0040    23.4270 H     1 LIG   0.0000 
 43 H122    11.1470     5.4100    22.5850 H     1 LIG   0.0000 
 44 H221     9.7320    -0.0300    25.9000 H     1 LIG   0.0000 
 45 H222    11.1430    -0.8440    26.0040 H     1 LIG   0.0000 
 46 H251    10.7090    -1.8060    23.8440 H     1 LIG   0.0000 
 47 H252     9.2600    -1.0530    23.8260 H     1 LIG   0.0000 
 48 H281    10.0720    -3.0940    25.6980 H     1 LIG   0.0000 
 49 H282     8.6750    -2.2600    25.8400 H     1 LIG   0.0000 
 50 H31      9.3610    -3.9630    23.6120 H     1 LIG   0.0000 
 51 H321     6.9430    -2.4400    24.0490 H     1 LIG   0.0000 
 52 H322     8.0670    -2.0860    22.9180 H     1 LIG   0.0000 
 53 H381     6.0040    -1.3310    21.5940 H     1 LIG   0.0000 
 54 H382     7.4690    -1.5640    20.9100 H     1 LIG   0.0000 
 55 H421     7.7060    -5.6900    22.5210 H     1 LIG   0.0000 
 56 H422     6.0780    -5.5940    22.4300 H     1 LIG   0.0000 
 57 H451     5.9840    -4.8420    24.6860 H     1 LIG   0.0000 
 58 H452     6.7690    -6.2730    24.6310 H     1 LIG   0.0000 
 59 H501    10.0500    -3.8050    26.2200 H     1 LIG   0.0000 
 60 H502     9.4590    -4.1480    27.7030 H     1 LIG   0.0000 
 61 H503    10.4020    -5.2330    26.9290 H     1 LIG   0.0000 
 62 H7      13.2380     5.1060    25.3790 H     1 LIG   0.0000 
@<TRIPOS>BOND
  1   1   2  1   
  2   1  37  1   
  3   1  38  1   
  4   1  39  1   
  5   2   3  2   
  6   2   4  am  
  7   4   5  1   
  8   4  62  1   
  9   5   6  1   
 10   5  40  1   
 11   5  41  1   
 12   6   7  1   
 13   6  42  1   
 14   6  43  1   
 15   7   8  2   
 16   7  31  1   
 17   8   9  1   
 18   8  32  1   
 19   9  10  1   
 20   9  33  1   
 21  10  11  ar  
 22  10  31  ar  
 23  11  12  1   
 24  11  28  ar  
 25  12  13  1   
 26  12  44  1   
 27  12  45  1   
 28  13  14  1   
 29  13  46  1   
 30  13  47  1   
 31  14  15  1   
 32  14  48  1   
 33  14  49  1   
 34  15  16  1   
 35  15  24  1   
 36  15  50  1   
 37  16  17  1   
 38  16  51  1   
 39  16  52  1   
 40  17  18  am  
 41  17  22  1   
 42  18  19  2   
 43  18  20  1   
 44  20  21  1   
 45  20  53  1   
 46  20  54  1   
 47  22  23  1   
 48  22  55  1   
 49  22  56  1   
 50  23  24  1   
 51  23  57  1   
 52  23  58  1   
 53  24  25  am  
 54  25  26  1   
 55  25  27  2   
 56  26  59  1   
 57  26  60  1   
 58  26  61  1   
 59  28  29  ar  
 60  28  34  1   
 61  29  30  ar  
 62  29  35  1   
 63  30  31  ar  
 64  30  36  1   
@<TRIPOS>SUBSTRUCTURE
  1 LIG  13 GROUP 4 **** **** 0
@<TRIPOS>PROPERTY_DATA
index	|	ligand205
Name	|	HAN-NEW-5f5-4
ChemPlp	|	-104.297
MM-GBSA Nwat=0	|	-40.4513
STDEV0	|	3.069
MM-GBSA Nwat=30	|	-70.8651
STDEV30	|	5.5683
MM-GBSA Nwat=60	|	-77.9208
STDEV60	|	6.2077
ST.DEV < 10%	|	Y
RMSD LIG < 2	|	Y
DIST < 5	|	Y
DIST < 3.5	|	N

# MOE 2019.01 (io_trps.svl 2018.10)

@<TRIPOS>MOLECULE
ligand512
70 73 1 0 0 
SMALL
NO_CHARGES


@<TRIPOS>ATOM
  1 C1      13.8670     6.0220    22.5120 C.3   1 LIG   0.0000 
  2 H2      14.8180     5.7160    22.5520 H     1 LIG   0.0000 
  3 H3      13.6570     6.3340    21.5850 H     1 LIG   0.0000 
  4 H4      13.7320     6.7750    23.1560 H     1 LIG   0.0000 
  5 C5      12.9470     4.8700    22.8790 C.2   1 LIG   0.0000 
  6 O6      11.7580     5.0310    22.8900 O.2   1 LIG   0.0000 
  7 N7      13.4750     3.6460    23.1970 N.am  1 LIG   0.0000 
  8 H8      14.4660     3.5120    23.1880 H     1 LIG   0.0000 
  9 C9      12.5850     2.5310    23.5520 C.3   1 LIG   0.0000 
 10 H10     11.7540     2.5780    22.9980 H     1 LIG   0.0000 
 11 H11     12.3430     2.5940    24.5210 H     1 LIG   0.0000 
 12 C12     13.2950     1.2130    23.2910 C.3   1 LIG   0.0000 
 13 H13     13.7350     1.2440    22.3930 H     1 LIG   0.0000 
 14 H14     13.9870     1.0620    23.9960 H     1 LIG   0.0000 
 15 C15     12.2840     0.0780    23.3210 C.2   1 LIG   0.0000 
 16 C16     12.1280    -0.8650    22.3470 C.2   1 LIG   0.0000 
 17 H17     12.6540    -0.9310    21.4990 H     1 LIG   0.0000 
 18 N18     11.1250    -1.7010    22.7410 N.pl3 1 LIG   0.0000 
 19 H19     10.7860    -2.4890    22.2260 H     1 LIG   0.0000 
 20 C20     10.6600    -1.2840    23.9560 C.ar  1 LIG   0.0000 
 21 C21      9.6490    -1.8160    24.7480 C.ar  1 LIG   0.0000 
 22 C22      8.8830    -3.0480    24.2960 C.3   1 LIG   0.0000 
 23 C23      9.7190    -4.2900    24.5580 C.3   1 LIG   0.0000 
 24 H24     10.6600    -4.1270    24.2600 H     1 LIG   0.0000 
 25 H25      9.3380    -5.0620    24.0490 H     1 LIG   0.0000 
 26 C26      9.7050    -4.6060    26.0440 C.3   1 LIG   0.0000 
 27 H27     10.3270    -5.3670    26.2290 H     1 LIG   0.0000 
 28 H28     10.0000    -3.8020    26.5590 H     1 LIG   0.0000 
 29 C29      8.2960    -4.9900    26.4670 C.ar  1 LIG   0.0000 
 30 C30      7.3550    -5.3320    25.5000 C.ar  1 LIG   0.0000 
 31 H31      7.6030    -5.3270    24.5320 H     1 LIG   0.0000 
 32 C32      6.0680    -5.6820    25.8920 C.ar  1 LIG   0.0000 
 33 H33      5.3830    -5.9280    25.2060 H     1 LIG   0.0000 
 34 C34      5.7360    -5.6860    27.2440 C.ar  1 LIG   0.0000 
 35 C35      4.3260    -6.0670    27.6660 C.3   1 LIG   0.0000 
 36 H36      4.2520    -6.0210    28.6620 H     1 LIG   0.0000 
 37 H37      3.6710    -5.4340    27.2530 H     1 LIG   0.0000 
 38 H38      4.1270    -6.9980    27.3600 H     1 LIG   0.0000 
 39 C39      6.6780    -5.3460    28.2100 C.ar  1 LIG   0.0000 
 40 H40      6.4310    -5.3540    29.1790 H     1 LIG   0.0000 
 41 C41      7.9660    -4.9950    27.8180 C.ar  1 LIG   0.0000 
 42 H42      8.6500    -4.7480    28.5030 H     1 LIG   0.0000 
 43 N43      8.5950    -2.9450    22.8590 N.3   1 LIG   0.0000 
 44 C44      7.7130    -4.0730    22.5190 C.3   1 LIG   0.0000 
 45 H45      6.8870    -4.0190    23.0790 H     1 LIG   0.0000 
 46 H46      8.1920    -4.9290    22.7120 H     1 LIG   0.0000 
 47 C47      7.3160    -4.0500    21.0500 C.3   1 LIG   0.0000 
 48 H48      8.0950    -4.3470    20.4980 H     1 LIG   0.0000 
 49 H49      6.5500    -4.6790    20.9110 H     1 LIG   0.0000 
 50 N50      6.9110    -2.7020    20.6220 N.am  1 LIG   0.0000 
 51 C51      5.9340    -2.5680    19.6310 C.2   1 LIG   0.0000 
 52 O52      5.4370    -3.5450    19.1430 O.2   1 LIG   0.0000 
 53 C53      5.5000    -1.1850    19.1730 C.3   1 LIG   0.0000 
 54 H54      4.9440    -1.2670    18.3450 H     1 LIG   0.0000 
 55 H55      4.9620    -0.7480    19.8940 H     1 LIG   0.0000 
 56 CL56     6.9390    -0.1970    18.8260 Cl    1 LIG   0.0000 
 57 C57      7.4900    -1.4780    21.2000 C.3   1 LIG   0.0000 
 58 H58      6.8190    -0.7390    21.1360 H     1 LIG   0.0000 
 59 H59      8.3100    -1.2300    20.6850 H     1 LIG   0.0000 
 60 C60      7.8640    -1.6840    22.6600 C.3   1 LIG   0.0000 
 61 H61      8.4410    -0.9240    22.9580 H     1 LIG   0.0000 
 62 H62      7.0290    -1.7030    23.2100 H     1 LIG   0.0000 
 63 C63      9.3230    -1.2330    25.9670 C.ar  1 LIG   0.0000 
 64 H64      8.5960    -1.6190    26.5340 H     1 LIG   0.0000 
 65 C65     10.0200    -0.1040    26.3880 C.ar  1 LIG   0.0000 
 66 H66      9.7980     0.3300    27.2620 H     1 LIG   0.0000 
 67 C67     11.0280     0.4130    25.5810 C.ar  1 LIG   0.0000 
 68 H68     11.5280     1.2240    25.8850 H     1 LIG   0.0000 
 69 C69     11.3580    -0.1690    24.3600 C.ar  1 LIG   0.0000 
 70 H70      8.0240    -3.1110    24.8040 H     1 LIG   0.0000 
@<TRIPOS>BOND
  1   1   2  1   
  2   1   3  1   
  3   1   4  1   
  4   1   5  1   
  5   5   6  2   
  6   5   7  am  
  7   7   8  1   
  8   7   9  1   
  9   9  10  1   
 10   9  11  1   
 11   9  12  1   
 12  12  13  1   
 13  12  14  1   
 14  12  15  1   
 15  15  16  2   
 16  15  69  1   
 17  16  17  1   
 18  16  18  1   
 19  18  19  1   
 20  18  20  1   
 21  20  21  ar  
 22  20  69  ar  
 23  21  22  1   
 24  21  63  ar  
 25  22  23  1   
 26  22  43  1   
 27  22  70  1   
 28  23  24  1   
 29  23  25  1   
 30  23  26  1   
 31  26  27  1   
 32  26  28  1   
 33  26  29  1   
 34  29  30  ar  
 35  29  41  ar  
 36  30  31  1   
 37  30  32  ar  
 38  32  33  1   
 39  32  34  ar  
 40  34  35  1   
 41  34  39  ar  
 42  35  36  1   
 43  35  37  1   
 44  35  38  1   
 45  39  40  1   
 46  39  41  ar  
 47  41  42  1   
 48  43  44  1   
 49  43  60  1   
 50  44  45  1   
 51  44  46  1   
 52  44  47  1   
 53  47  48  1   
 54  47  49  1   
 55  47  50  1   
 56  50  51  am  
 57  50  57  1   
 58  51  52  2   
 59  51  53  1   
 60  53  54  1   
 61  53  55  1   
 62  53  56  1   
 63  57  58  1   
 64  57  59  1   
 65  57  60  1   
 66  60  61  1   
 67  60  62  1   
 68  63  64  1   
 69  63  65  ar  
 70  65  66  1   
 71  65  67  ar  
 72  67  68  1   
 73  67  69  ar  
@<TRIPOS>SUBSTRUCTURE
  1 LIG  21 GROUP 4 **** **** 0
@<TRIPOS>PROPERTY_DATA
index	|	ligand512
Name	|	PAU-WEI-b9b-8
ChemPlp	|	-102.057
MM-GBSA Nwat=0	|	-46.0412
STDEV0	|	4.232
MM-GBSA Nwat=30	|	-70.1879
STDEV30	|	5.296
MM-GBSA Nwat=60	|	-73.1017
STDEV60	|	5.0784
ST.DEV < 10%	|	Y
RMSD LIG < 2	|	Y
DIST < 5	|	Y
DIST < 3.5	|	N

# MOE 2019.01 (io_trps.svl 2018.10)

@<TRIPOS>MOLECULE
ligand096
55 57 1 0 0 
SMALL
NO_CHARGES


@<TRIPOS>ATOM
  1 N1      14.5250    -0.1240    23.3350 N.1   1 LIG   0.0000 
  2 C2      13.5060     0.3670    23.1950 C.1   1 LIG   0.0000 
  3 C3      12.1470     1.0210    23.0080 C.ar  1 LIG   0.0000 
  4 C4      11.7780     2.0810    23.8310 C.ar  1 LIG   0.0000 
  5 H5      12.4030     2.4080    24.5400 H     1 LIG   0.0000 
  6 C6      10.5350     2.6820    23.6620 C.ar  1 LIG   0.0000 
  7 H7      10.2640     3.4440    24.2490 H     1 LIG   0.0000 
  8 C8       9.6690     2.2230    22.6750 C.ar  1 LIG   0.0000 
  9 C9       8.3180     2.9020    22.5180 C.3   1 LIG   0.0000 
 10 H10      8.0480     2.8900    21.5550 H     1 LIG   0.0000 
 11 H11      7.6350     2.4160    23.0620 H     1 LIG   0.0000 
 12 N12      8.4130     4.2940    22.9820 N.am  1 LIG   0.0000 
 13 H13      9.1100     4.5520    23.6510 H     1 LIG   0.0000 
 14 C14      7.5460     5.2380    22.4980 C.2   1 LIG   0.0000 
 15 O15      6.7090     4.9290    21.6950 O.2   1 LIG   0.0000 
 16 N16      7.6360     6.5630    22.9400 N.am  1 LIG   0.0000 
 17 C17      6.6970     7.5630    22.4090 C.3   1 LIG   0.0000 
 18 H18      5.8510     7.1050    22.1360 H     1 LIG   0.0000 
 19 H19      7.1070     8.0080    21.6130 H     1 LIG   0.0000 
 20 C20      6.3740     8.6180    23.4560 C.3   1 LIG   0.0000 
 21 H21      5.9240     9.3920    23.0100 H     1 LIG   0.0000 
 22 H22      5.7590     8.2220    24.1380 H     1 LIG   0.0000 
 23 O23      7.5500     9.0810    24.1070 O.3   1 LIG   0.0000 
 24 C24      8.1600     8.0340    24.8500 C.3   1 LIG   0.0000 
 25 H25      7.4900     7.6580    25.4910 H     1 LIG   0.0000 
 26 H26      8.9360     8.4050    25.3590 H     1 LIG   0.0000 
 27 C27      8.6530     6.9180    23.9420 C.3   1 LIG   0.0000 
 28 H28      9.4820     7.2220    23.4720 H     1 LIG   0.0000 
 29 H29      8.8600     6.1120    24.4960 H     1 LIG   0.0000 
 30 C30     10.0460     1.1620    21.8570 C.ar  1 LIG   0.0000 
 31 C31      9.1220     0.6370    20.7690 C.3   1 LIG   0.0000 
 32 H32      8.5650     1.3880    20.4150 H     1 LIG   0.0000 
 33 H33      9.6680     0.2480    20.0270 H     1 LIG   0.0000 
 34 N34      8.2470    -0.4010    21.3290 N.3   1 LIG   0.0000 
 35 C35      7.3350    -0.8170    20.2520 C.3   1 LIG   0.0000 
 36 H36      7.8760    -1.1490    19.4790 H     1 LIG   0.0000 
 37 H37      6.7910    -0.0290    19.9650 H     1 LIG   0.0000 
 38 C38      6.3960    -1.9240    20.7090 C.3   1 LIG   0.0000 
 39 H39      5.6950    -1.5310    21.3040 H     1 LIG   0.0000 
 40 H40      5.9610    -2.3330    19.9070 H     1 LIG   0.0000 
 41 N41      7.1180    -2.9720    21.4480 N.am  1 LIG   0.0000 
 42 C42      6.6700    -4.2940    21.3650 C.2   1 LIG   0.0000 
 43 O43      5.7080    -4.5600    20.6980 O.2   1 LIG   0.0000 
 44 C44      7.3990    -5.3930    22.1200 C.3   1 LIG   0.0000 
 45 H45      7.9640    -5.9170    21.4820 H     1 LIG   0.0000 
 46 H46      7.9820    -4.9850    22.8220 H     1 LIG   0.0000 
 47 CL47     6.2120    -6.4740    22.8880 Cl    1 LIG   0.0000 
 48 C48      8.3050    -2.6900    22.2710 C.3   1 LIG   0.0000 
 49 H49      8.8820    -3.5060    22.3030 H     1 LIG   0.0000 
 50 H50      8.0110    -2.4520    23.1970 H     1 LIG   0.0000 
 51 C51      9.1110    -1.5350    21.6950 C.3   1 LIG   0.0000 
 52 H52      9.7750    -1.2300    22.3770 H     1 LIG   0.0000 
 53 H53      9.5940    -1.8510    20.8780 H     1 LIG   0.0000 
 54 C54     11.2880     0.5550    22.0190 C.ar  1 LIG   0.0000 
 55 H55     11.5590    -0.2070    21.4310 H     1 LIG   0.0000 
@<TRIPOS>BOND
  1   1   2  3   
  2   2   3  1   
  3   3   4  ar  
  4   3  54  ar  
  5   4   5  1   
  6   4   6  ar  
  7   6   7  1   
  8   6   8  ar  
  9   8   9  1   
 10   8  30  ar  
 11   9  10  1   
 12   9  11  1   
 13   9  12  1   
 14  12  13  1   
 15  12  14  am  
 16  14  15  2   
 17  14  16  am  
 18  16  17  1   
 19  16  27  1   
 20  17  18  1   
 21  17  19  1   
 22  17  20  1   
 23  20  21  1   
 24  20  22  1   
 25  20  23  1   
 26  23  24  1   
 27  24  25  1   
 28  24  26  1   
 29  24  27  1   
 30  27  28  1   
 31  27  29  1   
 32  30  31  1   
 33  30  54  ar  
 34  31  32  1   
 35  31  33  1   
 36  31  34  1   
 37  34  35  1   
 38  34  51  1   
 39  35  36  1   
 40  35  37  1   
 41  35  38  1   
 42  38  39  1   
 43  38  40  1   
 44  38  41  1   
 45  41  42  am  
 46  41  48  1   
 47  42  43  2   
 48  42  44  1   
 49  44  45  1   
 50  44  46  1   
 51  44  47  1   
 52  48  49  1   
 53  48  50  1   
 54  48  51  1   
 55  51  52  1   
 56  51  53  1   
 57  54  55  1   
@<TRIPOS>SUBSTRUCTURE
  1 LIG   8 GROUP 4 **** **** 0
@<TRIPOS>PROPERTY_DATA
index	|	ligand096
Name	|	DAR-DIA-fb2-16
ChemPlp	|	-92.0773
MM-GBSA Nwat=0	|	-40.3762
STDEV0	|	3.4518
MM-GBSA Nwat=30	|	-66.5586
STDEV30	|	5.0533
MM-GBSA Nwat=60	|	-73.4008
STDEV60	|	5.3612
ST.DEV < 10%	|	Y
RMSD LIG < 2	|	Y
DIST < 5	|	Y
DIST < 3.5	|	N

# MOE 2019.01 (io_trps.svl 2018.10)

@<TRIPOS>MOLECULE
ligand079
56 59 1 0 0 
SMALL
NO_CHARGES


@<TRIPOS>ATOM
  1 N1      14.4770    -1.7860    21.1120 N.1   1 LIG   0.0000 
  2 C2      13.6000    -1.4350    21.7500 C.1   1 LIG   0.0000 
  3 C3      12.4310    -0.9670    22.6010 C.ar  1 LIG   0.0000 
  4 C4      12.5250     0.1560    23.4160 C.ar  1 LIG   0.0000 
  5 N6      11.4810     0.5520    24.1590 N.ar  1 LIG   0.0000 
  6 C7      10.3170    -0.1150    24.1430 C.ar  1 LIG   0.0000 
  7 C8       9.1540     0.3630    24.9980 C.3   1 LIG   0.0000 
  8 N11      9.2570     1.8160    25.1950 N.am  1 LIG   0.0000 
  9 C13      9.0220     2.6680    24.1480 C.2   1 LIG   0.0000 
 10 O14      8.7320     2.2280    23.0700 O.2   1 LIG   0.0000 
 11 N15      9.1190     4.0520    24.3370 N.am  1 LIG   0.0000 
 12 C16      8.8630     4.9510    23.2010 C.3   1 LIG   0.0000 
 13 C19      8.2360     6.2560    23.6680 C.3   1 LIG   0.0000 
 14 O22      8.9140     6.7820    24.8020 O.3   1 LIG   0.0000 
 15 C23      8.7760     5.9130    25.9190 C.3   1 LIG   0.0000 
 16 C26      9.4520     4.5730    25.6710 C.3   1 LIG   0.0000 
 17 C29     10.1610    -1.2450    23.3480 C.ar  1 LIG   0.0000 
 18 C30      8.8560    -2.0260    23.3040 C.3   1 LIG   0.0000 
 19 C31      8.6770    -2.4820    21.8680 C.3   1 LIG   0.0000 
 20 N34      7.4460    -3.2780    21.8390 N.am  1 LIG   0.0000 
 21 C35      6.2240    -2.7980    21.3600 C.2   1 LIG   0.0000 
 22 O36      5.2550    -3.5060    21.3730 O.2   1 LIG   0.0000 
 23 C37      6.1210    -1.3800    20.8230 C.3   1 LIG   0.0000 
 24 CL40     5.7990    -1.4300    19.0740 Cl    1 LIG   0.0000 
 25 C41      7.6400    -4.6310    22.3760 C.3   1 LIG   0.0000 
 26 C44      8.3710    -4.4900    23.7020 C.ar  1 LIG   0.0000 
 27 C45      8.4700    -5.6280    24.4870 C.ar  1 LIG   0.0000 
 28 C47      9.1310    -5.5980    25.7100 C.ar  1 LIG   0.0000 
 29 C49      9.7000    -4.4090    26.1540 C.ar  1 LIG   0.0000 
 30 C51      9.6010    -3.2660    25.3680 C.ar  1 LIG   0.0000 
 31 C53      8.9420    -3.2920    24.1440 C.ar  1 LIG   0.0000 
 32 C54     11.2320    -1.6720    22.5700 C.ar  1 LIG   0.0000 
 33 H4      13.3800     0.6740    23.4480 H     1 LIG   0.0000 
 34 H54     11.1420    -2.4820    21.9910 H     1 LIG   0.0000 
 35 H45      8.0610    -6.4840    24.1680 H     1 LIG   0.0000 
 36 H47      9.1970    -6.4260    26.2670 H     1 LIG   0.0000 
 37 H49     10.1780    -4.3760    27.0320 H     1 LIG   0.0000 
 38 H51     10.0100    -2.4110    25.6890 H     1 LIG   0.0000 
 39 H81      8.2920     0.1490    24.5380 H     1 LIG   0.0000 
 40 H82      9.1820    -0.0960    25.8850 H     1 LIG   0.0000 
 41 H161     8.2410     4.5000    22.5600 H     1 LIG   0.0000 
 42 H162     9.7280     5.1510    22.7400 H     1 LIG   0.0000 
 43 H191     8.2790     6.9220    22.9250 H     1 LIG   0.0000 
 44 H192     7.2800     6.0880    23.9110 H     1 LIG   0.0000 
 45 H231     7.8040     5.7600    26.0930 H     1 LIG   0.0000 
 46 H232     9.1940     6.3440    26.7190 H     1 LIG   0.0000 
 47 H261    10.4430     4.6890    25.7390 H     1 LIG   0.0000 
 48 H262     9.1450     3.9200    26.3630 H     1 LIG   0.0000 
 49 H30      8.0890    -1.4560    23.5960 H     1 LIG   0.0000 
 50 H311     8.5920    -1.6910    21.2620 H     1 LIG   0.0000 
 51 H312     9.4570    -3.0380    21.5810 H     1 LIG   0.0000 
 52 H371     5.3750    -0.9010    21.2860 H     1 LIG   0.0000 
 53 H372     6.9810    -0.8980    20.9900 H     1 LIG   0.0000 
 54 H411     8.1860    -5.1770    21.7400 H     1 LIG   0.0000 
 55 H412     6.7540    -5.0730    22.5180 H     1 LIG   0.0000 
 56 H11      9.4980     2.1830    26.0940 H     1 LIG   0.0000 
@<TRIPOS>BOND
  1   1   2  3   
  2   2   3  1   
  3   3   4  ar  
  4   3  32  ar  
  5   4   5  ar  
  6   4  33  1   
  7   5   6  ar  
  8   6   7  1   
  9   6  17  ar  
 10   7   8  1   
 11   7  39  1   
 12   7  40  1   
 13   8   9  am  
 14   8  56  1   
 15   9  10  2   
 16   9  11  am  
 17  11  12  1   
 18  11  16  1   
 19  12  13  1   
 20  12  41  1   
 21  12  42  1   
 22  13  14  1   
 23  13  43  1   
 24  13  44  1   
 25  14  15  1   
 26  15  16  1   
 27  15  45  1   
 28  15  46  1   
 29  16  47  1   
 30  16  48  1   
 31  17  18  1   
 32  17  32  ar  
 33  18  19  1   
 34  18  31  1   
 35  18  49  1   
 36  19  20  1   
 37  19  50  1   
 38  19  51  1   
 39  20  21  am  
 40  20  25  1   
 41  21  22  2   
 42  21  23  1   
 43  23  24  1   
 44  23  52  1   
 45  23  53  1   
 46  25  26  1   
 47  25  54  1   
 48  25  55  1   
 49  26  27  ar  
 50  26  31  ar  
 51  27  28  ar  
 52  27  35  1   
 53  28  29  ar  
 54  28  36  1   
 55  29  30  ar  
 56  29  37  1   
 57  30  31  ar  
 58  30  38  1   
 59  32  34  1   
@<TRIPOS>SUBSTRUCTURE
  1 LIG  17 GROUP 4 **** **** 0
@<TRIPOS>PROPERTY_DATA
index	|	ligand079
Name	|	DAR-DIA-cab-12
ChemPlp	|	-97.4529
MM-GBSA Nwat=0	|	-34.0594
STDEV0	|	2.7856
MM-GBSA Nwat=30	|	-64.9427
STDEV30	|	6.0649
MM-GBSA Nwat=60	|	-76.1056
STDEV60	|	6.0905
ST.DEV < 10%	|	Y
RMSD LIG < 2	|	Y
DIST < 5	|	Y
DIST < 3.5	|	N

# MOE 2019.01 (io_trps.svl 2018.10)

@<TRIPOS>MOLECULE
ligand511
67 70 1 0 0 
SMALL
NO_CHARGES


@<TRIPOS>ATOM
  1 C1      13.8930     6.0430    22.5380 C.3   1 LIG   0.0000 
  2 H2      14.8410     5.7280    22.5830 H     1 LIG   0.0000 
  3 H3      13.6920     6.3640    21.6120 H     1 LIG   0.0000 
  4 H4      13.7590     6.7920    23.1860 H     1 LIG   0.0000 
  5 C5      12.9600     4.8950    22.8890 C.2   1 LIG   0.0000 
  6 O6      11.7730     5.0660    22.8930 O.2   1 LIG   0.0000 
  7 N7      13.4760     3.6650    23.2020 N.am  1 LIG   0.0000 
  8 H8      14.4660     3.5220    23.1990 H     1 LIG   0.0000 
  9 C9      12.5740     2.5540    23.5420 C.3   1 LIG   0.0000 
 10 H10     11.7680     2.5870    22.9510 H     1 LIG   0.0000 
 11 H11     12.2910     2.6360    24.4970 H     1 LIG   0.0000 
 12 C12     13.2980     1.2340    23.3380 C.3   1 LIG   0.0000 
 13 H13     13.7640     1.2420    22.4540 H     1 LIG   0.0000 
 14 H14     13.9690     1.1050    24.0680 H     1 LIG   0.0000 
 15 C15     12.2920     0.0940    23.3700 C.2   1 LIG   0.0000 
 16 C16     12.1560    -0.8640    22.4080 C.2   1 LIG   0.0000 
 17 H17     12.6960    -0.9400    21.5700 H     1 LIG   0.0000 
 18 N18     11.1500    -1.7000    22.7980 N.pl3 1 LIG   0.0000 
 19 H19     10.8240    -2.4960    22.2900 H     1 LIG   0.0000 
 20 C20     10.6640    -1.2660    23.9990 C.ar  1 LIG   0.0000 
 21 C21      9.6430    -1.7910    24.7820 C.ar  1 LIG   0.0000 
 22 C22      8.8900    -3.0330    24.3370 C.3   1 LIG   0.0000 
 23 C23      9.7370    -4.2650    24.6090 C.3   1 LIG   0.0000 
 24 H24     10.6810    -4.0880    24.3300 H     1 LIG   0.0000 
 25 H25      9.3760    -5.0400    24.0890 H     1 LIG   0.0000 
 26 C26      9.7000    -4.5880    26.0930 C.3   1 LIG   0.0000 
 27 H27     10.3160    -5.3530    26.2840 H     1 LIG   0.0000 
 28 H28      9.9910    -3.7870    26.6160 H     1 LIG   0.0000 
 29 C29      8.2830    -4.9680    26.4940 C.ar  1 LIG   0.0000 
 30 C30      7.9140    -4.9360    27.8340 C.ar  1 LIG   0.0000 
 31 H31      8.5760    -4.6660    28.5330 H     1 LIG   0.0000 
 32 C32      6.6170    -5.2850    28.1960 C.ar  1 LIG   0.0000 
 33 H33      6.3440    -5.2660    29.1580 H     1 LIG   0.0000 
 34 C34      5.6990    -5.6600    27.2200 C.ar  1 LIG   0.0000 
 35 H35      4.7670    -5.9100    27.4810 H     1 LIG   0.0000 
 36 C36      6.0790    -5.6870    25.8840 C.ar  1 LIG   0.0000 
 37 H37      5.4160    -5.9570    25.1860 H     1 LIG   0.0000 
 38 C38      7.3730    -5.3410    25.5090 C.ar  1 LIG   0.0000 
 39 H39      7.6450    -5.3610    24.5470 H     1 LIG   0.0000 
 40 N40      8.6040    -2.9430    22.8990 N.3   1 LIG   0.0000 
 41 C41      7.7330    -4.0810    22.5640 C.3   1 LIG   0.0000 
 42 H42      6.9050    -4.0310    23.1220 H     1 LIG   0.0000 
 43 H43      8.2200    -4.9310    22.7640 H     1 LIG   0.0000 
 44 C44      7.3390    -4.0720    21.0950 C.3   1 LIG   0.0000 
 45 H45      8.1220    -4.3640    20.5460 H     1 LIG   0.0000 
 46 H46      6.5800    -4.7080    20.9580 H     1 LIG   0.0000 
 47 N47      6.9230    -2.7290    20.6560 N.am  1 LIG   0.0000 
 48 C48      5.9460    -2.6120    19.6630 C.2   1 LIG   0.0000 
 49 O49      5.4590    -3.5960    19.1800 O.2   1 LIG   0.0000 
 50 C50      5.5010    -1.2360    19.1940 C.3   1 LIG   0.0000 
 51 H51      4.9490    -1.3280    18.3660 H     1 LIG   0.0000 
 52 H52      4.9560    -0.8000    19.9110 H     1 LIG   0.0000 
 53 CL53     6.9320    -0.2360    18.8460 Cl    1 LIG   0.0000 
 54 C54      7.4880    -1.4970    21.2280 C.3   1 LIG   0.0000 
 55 H55      6.8120    -0.7640    21.1580 H     1 LIG   0.0000 
 56 H56      8.3080    -1.2450    20.7130 H     1 LIG   0.0000 
 57 C57      7.8620    -1.6900    22.6900 C.3   1 LIG   0.0000 
 58 H58      8.4310    -0.9220    22.9840 H     1 LIG   0.0000 
 59 H59      7.0250    -1.7130    23.2380 H     1 LIG   0.0000 
 60 C60      9.2940    -1.1910    25.9870 C.ar  1 LIG   0.0000 
 61 H61      8.5600    -1.5720    26.5490 H     1 LIG   0.0000 
 62 C62      9.9790    -0.0530    26.4020 C.ar  1 LIG   0.0000 
 63 H63      9.7420     0.3930    27.2650 H     1 LIG   0.0000 
 64 C64     10.9980     0.4570    25.6040 C.ar  1 LIG   0.0000 
 65 H65     11.4890     1.2750    25.9040 H     1 LIG   0.0000 
 66 C66     11.3500    -0.1420    24.3980 C.ar  1 LIG   0.0000 
 67 H67      8.0300    -3.1010    24.8440 H     1 LIG   0.0000 
@<TRIPOS>BOND
  1   1   2  1   
  2   1   3  1   
  3   1   4  1   
  4   1   5  1   
  5   5   6  2   
  6   5   7  am  
  7   7   8  1   
  8   7   9  1   
  9   9  10  1   
 10   9  11  1   
 11   9  12  1   
 12  12  13  1   
 13  12  14  1   
 14  12  15  1   
 15  15  16  2   
 16  15  66  1   
 17  16  17  1   
 18  16  18  1   
 19  18  19  1   
 20  18  20  1   
 21  20  21  ar  
 22  20  66  ar  
 23  21  22  1   
 24  21  60  ar  
 25  22  23  1   
 26  22  40  1   
 27  22  67  1   
 28  23  24  1   
 29  23  25  1   
 30  23  26  1   
 31  26  27  1   
 32  26  28  1   
 33  26  29  1   
 34  29  30  ar  
 35  29  38  ar  
 36  30  31  1   
 37  30  32  ar  
 38  32  33  1   
 39  32  34  ar  
 40  34  35  1   
 41  34  36  ar  
 42  36  37  1   
 43  36  38  ar  
 44  38  39  1   
 45  40  41  1   
 46  40  57  1   
 47  41  42  1   
 48  41  43  1   
 49  41  44  1   
 50  44  45  1   
 51  44  46  1   
 52  44  47  1   
 53  47  48  am  
 54  47  54  1   
 55  48  49  2   
 56  48  50  1   
 57  50  51  1   
 58  50  52  1   
 59  50  53  1   
 60  54  55  1   
 61  54  56  1   
 62  54  57  1   
 63  57  58  1   
 64  57  59  1   
 65  60  61  1   
 66  60  62  ar  
 67  62  63  1   
 68  62  64  ar  
 69  64  65  1   
 70  64  66  ar  
@<TRIPOS>SUBSTRUCTURE
  1 LIG  21 GROUP 4 **** **** 0
@<TRIPOS>PROPERTY_DATA
index	|	ligand511
Name	|	PAU-WEI-b9b-7
ChemPlp	|	-100.652
MM-GBSA Nwat=0	|	-40.7397
STDEV0	|	3.2334
MM-GBSA Nwat=30	|	-64.5203
STDEV30	|	5.428
MM-GBSA Nwat=60	|	-67.6596
STDEV60	|	5.5632
ST.DEV < 10%	|	Y
RMSD LIG < 2	|	Y
DIST < 5	|	Y
DIST < 3.5	|	N

# MOE 2019.01 (io_trps.svl 2018.10)

@<TRIPOS>MOLECULE
ligand612
54 56 1 0 0 
SMALL
NO_CHARGES


@<TRIPOS>ATOM
  1 C1       8.6410     6.1530    22.8740 C.3   1 LIG   0.0000 
  2 H2       8.6930     5.7030    21.9830 H     1 LIG   0.0000 
  3 H3       7.8670     5.7840    23.3890 H     1 LIG   0.0000 
  4 H4       8.5170     7.1370    22.7450 H     1 LIG   0.0000 
  5 C5       9.9270     5.9010    23.6450 C.2   1 LIG   0.0000 
  6 O6      10.0660     6.3570    24.7460 O.2   1 LIG   0.0000 
  7 N7      10.9270     5.1520    23.0820 N.am  1 LIG   0.0000 
  8 H8      10.8110     4.7720    22.1650 H     1 LIG   0.0000 
  9 C9      12.1710     4.9080    23.8270 C.3   1 LIG   0.0000 
 10 H10     11.9550     4.7350    24.7880 H     1 LIG   0.0000 
 11 H11     12.7630     5.7110    23.7580 H     1 LIG   0.0000 
 12 C12     12.8840     3.7000    23.2420 C.3   1 LIG   0.0000 
 13 H13     12.9400     3.7960    22.2480 H     1 LIG   0.0000 
 14 H14     13.8060     3.6400    23.6240 H     1 LIG   0.0000 
 15 C15     12.1090     2.4380    23.5870 C.2   1 LIG   0.0000 
 16 C16     10.9550     2.4160    24.3120 C.2   1 LIG   0.0000 
 17 H17     10.4730     3.1980    24.7060 H     1 LIG   0.0000 
 18 N18     10.5960     1.1040    24.3860 N.pl3 1 LIG   0.0000 
 19 C19      9.3890     0.6680    25.1020 C.3   1 LIG   0.0000 
 20 H20      8.9200     1.4660    25.4810 H     1 LIG   0.0000 
 21 H21      8.7790     0.1930    24.4670 H     1 LIG   0.0000 
 22 H22      9.6460     0.0480    25.8430 H     1 LIG   0.0000 
 23 C23     11.5020     0.3090    23.7320 C.ar  1 LIG   0.0000 
 24 C24     11.5630    -1.0740    23.5410 C.ar  1 LIG   0.0000 
 25 C25     10.5160    -2.0410    24.0770 C.3   1 LIG   0.0000 
 26 H26     10.9680    -2.7660    24.5970 H     1 LIG   0.0000 
 27 H27      9.8820    -1.5490    24.6730 H     1 LIG   0.0000 
 28 N28      9.7760    -2.6320    22.9550 N.3   1 LIG   0.0000 
 29 C29      8.7320    -3.4910    23.5380 C.3   1 LIG   0.0000 
 30 H30      8.1490    -2.9360    24.1310 H     1 LIG   0.0000 
 31 H31      9.1680    -4.2110    24.0780 H     1 LIG   0.0000 
 32 C32      7.8700    -4.1350    22.4620 C.3   1 LIG   0.0000 
 33 H33      8.3900    -4.8700    22.0260 H     1 LIG   0.0000 
 34 H34      7.0490    -4.5140    22.8870 H     1 LIG   0.0000 
 35 N35      7.4700    -3.1580    21.4360 N.am  1 LIG   0.0000 
 36 C36      6.2340    -3.3090    20.8000 C.2   1 LIG   0.0000 
 37 O37      5.5160    -4.2240    21.0940 O.2   1 LIG   0.0000 
 38 C38      5.7990    -2.3120    19.7380 C.3   1 LIG   0.0000 
 39 H39      6.4320    -2.3520    18.9650 H     1 LIG   0.0000 
 40 H40      4.8770    -2.5400    19.4250 H     1 LIG   0.0000 
 41 CL41     5.8040    -0.6710    20.4260 Cl    1 LIG   0.0000 
 42 C42      8.3160    -2.0170    21.0530 C.3   1 LIG   0.0000 
 43 H43      7.7330    -1.2740    20.7250 H     1 LIG   0.0000 
 44 H44      8.9360    -2.3020    20.3210 H     1 LIG   0.0000 
 45 C45      9.1370    -1.5200    22.2330 C.3   1 LIG   0.0000 
 46 H46      9.8470    -0.9010    21.8980 H     1 LIG   0.0000 
 47 H47      8.5360    -1.0280    22.8620 H     1 LIG   0.0000 
 48 C48     12.6080    -1.6510    22.8250 C.ar  1 LIG   0.0000 
 49 H49     12.6440    -2.6420    22.6940 H     1 LIG   0.0000 
 50 C50     13.6000    -0.8330    22.2950 C.ar  1 LIG   0.0000 
 51 H51     14.3620    -1.2270    21.7800 H     1 LIG   0.0000 
 52 C52     13.5160     0.5410    22.4950 C.ar  1 LIG   0.0000 
 53 H53     14.2280     1.1300    22.1140 H     1 LIG   0.0000 
 54 C54     12.4700     1.1240    23.2100 C.ar  1 LIG   0.0000 
@<TRIPOS>BOND
  1   1   2  1   
  2   1   3  1   
  3   1   4  1   
  4   1   5  1   
  5   5   6  2   
  6   5   7  am  
  7   7   8  1   
  8   7   9  1   
  9   9  10  1   
 10   9  11  1   
 11   9  12  1   
 12  12  13  1   
 13  12  14  1   
 14  12  15  1   
 15  15  16  2   
 16  15  54  1   
 17  16  17  1   
 18  16  18  1   
 19  18  19  1   
 20  18  23  1   
 21  19  20  1   
 22  19  21  1   
 23  19  22  1   
 24  23  24  ar  
 25  23  54  ar  
 26  24  25  1   
 27  24  48  ar  
 28  25  26  1   
 29  25  27  1   
 30  25  28  1   
 31  28  29  1   
 32  28  45  1   
 33  29  30  1   
 34  29  31  1   
 35  29  32  1   
 36  32  33  1   
 37  32  34  1   
 38  32  35  1   
 39  35  36  am  
 40  35  42  1   
 41  36  37  2   
 42  36  38  1   
 43  38  39  1   
 44  38  40  1   
 45  38  41  1   
 46  42  43  1   
 47  42  44  1   
 48  42  45  1   
 49  45  46  1   
 50  45  47  1   
 51  48  49  1   
 52  48  50  ar  
 53  50  51  1   
 54  50  52  ar  
 55  52  53  1   
 56  52  54  ar  
@<TRIPOS>SUBSTRUCTURE
  1 LIG  23 GROUP 4 **** **** 0
@<TRIPOS>PROPERTY_DATA
index	|	ligand612
Name	|	TAM-UNI-d1c-20
ChemPlp	|	-99.2654
MM-GBSA Nwat=0	|	-33.2147
STDEV0	|	2.715
MM-GBSA Nwat=30	|	-62.1516
STDEV30	|	4.9334
MM-GBSA Nwat=60	|	-64.7568
STDEV60	|	5.1059
ST.DEV < 10%	|	Y
RMSD LIG < 2	|	Y
DIST < 5	|	Y
DIST < 3.5	|	Y

# MOE 2019.01 (io_trps.svl 2018.10)

@<TRIPOS>MOLECULE
ligand362
63 65 1 0 0 
SMALL
USER_CHARGES


@<TRIPOS>ATOM
  1 C1      12.4120     8.1070    26.5180 C.3   1 LIG   0.0000 
  2 C5      12.0650     6.6690    26.1700 C.3   1 LIG   0.0000 
  3 N8      11.2600     6.6430    24.9400 N.4   1 LIG   1.0000 
  4 C11     10.8060     5.2690    24.6800 C.3   1 LIG   0.0000 
  5 C12     12.0020     4.3720    24.4050 C.3   1 LIG   0.0000 
  6 C15     11.5380     2.9500    24.1330 C.3   1 LIG   0.0000 
  7 O16     12.6560     2.1140    23.8730 O.3   1 LIG   0.0000 
  8 C17     12.4680     0.8150    23.5580 C.ar  1 LIG   0.0000 
  9 C18     13.3580     0.1820    22.6950 C.ar  1 LIG   0.0000 
 10 C20     13.1710    -1.1560    22.3620 C.ar  1 LIG   0.0000 
 11 C22     12.0970    -1.8620    22.8930 C.ar  1 LIG   0.0000 
 12 C24     11.2140    -1.2170    23.7540 C.ar  1 LIG   0.0000 
 13 C25     10.0360    -1.9780    24.3400 C.3   1 LIG   0.0000 
 14 N28      9.5220    -2.9280    23.3430 N.4   1 LIG   1.0000 
 15 C30      8.6030    -3.8370    24.0480 C.3   1 LIG   0.0000 
 16 C33      7.9650    -4.8440    23.1040 C.3   1 LIG   0.0000 
 17 N36      7.4840    -4.2000    21.8720 N.am  1 LIG   0.0000 
 18 C37      6.3450    -4.7210    21.2470 C.2   1 LIG   0.0000 
 19 O38      5.9280    -4.2160    20.2410 O.2   1 LIG   0.0000 
 20 C39      5.6350    -5.9260    21.8430 C.3   1 LIG   0.0000 
 21 CL42     4.4190    -5.3750    23.0220 Cl    1 LIG   0.0000 
 22 C43      8.1450    -3.0250    21.2810 C.3   1 LIG   0.0000 
 23 C46      8.7770    -2.1410    22.3460 C.3   1 LIG   0.0000 
 24 C49     11.3900     0.1200    24.0940 C.ar  1 LIG   0.0000 
 25 C51     10.5910     2.9300    22.9440 C.3   1 LIG   0.0000 
 26 C54      9.3940     3.8260    23.2240 C.3   1 LIG   0.0000 
 27 C57      9.8560     5.2490    23.4940 C.3   1 LIG   0.0000 
 28 O58      8.7380     6.0850    23.7540 O.3   1 LIG   0.0000 
 29 C59      7.8940     6.1160    22.6130 C.1   1 LIG   0.0000 
 30 N60      7.2160     6.1400    21.6960 N.1   1 LIG   0.0000 
 31 H18     14.1310     0.6890    22.3150 H     1 LIG   0.0000 
 32 H20     13.8100    -1.6100    21.7410 H     1 LIG   0.0000 
 33 H22     11.9590    -2.8240    22.6580 H     1 LIG   0.0000 
 34 H49     10.7500     0.5750    24.7140 H     1 LIG   0.0000 
 35 H11     12.9600     8.1250    27.3540 H     1 LIG   0.0000 
 36 H12     12.9340     8.5150    25.7690 H     1 LIG   0.0000 
 37 H13     11.5700     8.6280    26.6600 H     1 LIG   0.0000 
 38 H51     12.9070     6.1480    26.0280 H     1 LIG   0.0000 
 39 H52     11.5430     6.2610    26.9190 H     1 LIG   0.0000 
 40 H81     10.4660     7.2410    25.0490 H     1 LIG   0.0000 
 41 H82     11.8150     6.9620    24.1720 H     1 LIG   0.0000 
 42 H11     10.3240     4.9290    25.4880 H     1 LIG   0.0000 
 43 H121    12.4980     4.7170    23.6080 H     1 LIG   0.0000 
 44 H122    12.6080     4.3760    25.2010 H     1 LIG   0.0000 
 45 H15     11.0560     2.6060    24.9380 H     1 LIG   0.0000 
 46 H251    10.3340    -2.4780    25.1540 H     1 LIG   0.0000 
 47 H252     9.3140    -1.3340    24.5910 H     1 LIG   0.0000 
 48 H28     10.2680    -3.4360    22.9140 H     1 LIG   0.0000 
 49 H301     7.8810    -3.2960    24.4800 H     1 LIG   0.0000 
 50 H302     9.1140    -4.3320    24.7510 H     1 LIG   0.0000 
 51 H331     8.6440    -5.5390    22.8630 H     1 LIG   0.0000 
 52 H332     7.1930    -5.2790    23.5660 H     1 LIG   0.0000 
 53 H391     5.1830    -6.4410    21.1150 H     1 LIG   0.0000 
 54 H392     6.3020    -6.5120    22.3020 H     1 LIG   0.0000 
 55 H431     7.4660    -2.4910    20.7770 H     1 LIG   0.0000 
 56 H432     8.8580    -3.3360    20.6520 H     1 LIG   0.0000 
 57 H461     9.4070    -1.5020    21.9030 H     1 LIG   0.0000 
 58 H462     8.0550    -1.6290    22.8110 H     1 LIG   0.0000 
 59 H511    10.2750     1.9950    22.7870 H     1 LIG   0.0000 
 60 H512    11.0700     3.2610    22.1320 H     1 LIG   0.0000 
 61 H541     8.7860     3.8210    22.4300 H     1 LIG   0.0000 
 62 H542     8.9020     3.4810    24.0220 H     1 LIG   0.0000 
 63 H57     10.3370     5.5920    22.6870 H     1 LIG   0.0000 
@<TRIPOS>BOND
  1   1   2  1   
  2   1  35  1   
  3   1  36  1   
  4   1  37  1   
  5   2   3  1   
  6   2  38  1   
  7   2  39  1   
  8   3   4  1   
  9   3  40  1   
 10   3  41  1   
 11   4   5  1   
 12   4  27  1   
 13   4  42  1   
 14   5   6  1   
 15   5  43  1   
 16   5  44  1   
 17   6   7  1   
 18   6  25  1   
 19   6  45  1   
 20   7   8  1   
 21   8   9  ar  
 22   8  24  ar  
 23   9  10  ar  
 24   9  31  1   
 25  10  11  ar  
 26  10  32  1   
 27  11  12  ar  
 28  11  33  1   
 29  12  13  1   
 30  12  24  ar  
 31  13  14  1   
 32  13  46  1   
 33  13  47  1   
 34  14  15  1   
 35  14  23  1   
 36  14  48  1   
 37  15  16  1   
 38  15  49  1   
 39  15  50  1   
 40  16  17  1   
 41  16  51  1   
 42  16  52  1   
 43  17  18  am  
 44  17  22  1   
 45  18  19  2   
 46  18  20  1   
 47  20  21  1   
 48  20  53  1   
 49  20  54  1   
 50  22  23  1   
 51  22  55  1   
 52  22  56  1   
 53  23  57  1   
 54  23  58  1   
 55  24  34  1   
 56  25  26  1   
 57  25  59  1   
 58  25  60  1   
 59  26  27  1   
 60  26  61  1   
 61  26  62  1   
 62  27  28  1   
 63  27  63  1   
 64  28  29  1   
 65  29  30  3   
@<TRIPOS>SUBSTRUCTURE
  1 LIG  24 GROUP 4 **** **** 0
@<TRIPOS>PROPERTY_DATA
index	|	ligand362
Name	|	MAK-UNK-af8-19
ChemPlp	|	-99.3614
MM-GBSA Nwat=0	|	-25.5703
STDEV0	|	2.7462
MM-GBSA Nwat=30	|	-60.9849
STDEV30	|	5.5343
MM-GBSA Nwat=60	|	-78.4135
STDEV60	|	5.54
ST.DEV < 10%	|	Y
RMSD LIG < 2	|	Y
DIST < 5	|	Y
DIST < 3.5	|	N

# MOE 2019.01 (io_trps.svl 2018.10)

@<TRIPOS>MOLECULE
ligand484
53 56 1 0 0 
SMALL
NO_CHARGES


@<TRIPOS>ATOM
  1 C1       7.6000     6.6630    21.5720 C.3   1 LIG   0.0000 
  2 C5       8.2700     6.3890    22.9090 C.2   1 LIG   0.0000 
  3 O6       7.6700     6.5770    23.9300 O.2   1 LIG   0.0000 
  4 N7       9.5590     5.9260    22.9470 N.am  1 LIG   0.0000 
  5 C9      10.2070     5.6620    24.2400 C.3   1 LIG   0.0000 
  6 C12     11.1500     4.4780    24.1010 C.3   1 LIG   0.0000 
  7 C15     10.3440     3.2150    23.8440 C.2   1 LIG   0.0000 
  8 C16      8.9820     3.1360    23.8850 C.2   1 LIG   0.0000 
  9 N18      8.6420     1.8460    23.6030 N.pl3 1 LIG   0.0000 
 10 C20      9.7870     1.1320    23.3880 C.ar  1 LIG   0.0000 
 11 C21      9.9640    -0.2120    23.0740 C.ar  1 LIG   0.0000 
 12 C22      8.7560    -1.1230    22.9200 C.3   1 LIG   0.0000 
 13 C23      8.7460    -1.5830    21.4740 C.3   1 LIG   0.0000 
 14 N26      7.6120    -2.5020    21.3420 N.am  1 LIG   0.0000 
 15 C27      6.3910    -2.1480    20.7620 C.2   1 LIG   0.0000 
 16 O28      5.5030    -2.9520    20.6930 O.2   1 LIG   0.0000 
 17 C29      6.1870    -0.7430    20.2170 C.3   1 LIG   0.0000 
 18 CL32     6.1000    -0.8030    18.4400 Cl    1 LIG   0.0000 
 19 C33      7.8990    -3.8320    21.8940 C.3   1 LIG   0.0000 
 20 C36      8.4970    -3.6260    23.2780 C.ar  1 LIG   0.0000 
 21 C37      8.6480    -4.7550    24.0690 C.ar  1 LIG   0.0000 
 22 C39      9.1970    -4.6660    25.3440 C.ar  1 LIG   0.0000 
 23 C41      9.6000    -3.4280    25.8330 C.ar  1 LIG   0.0000 
 24 C43      9.4490    -2.2950    25.0410 C.ar  1 LIG   0.0000 
 25 C45      8.9020    -2.3790    23.7650 C.ar  1 LIG   0.0000 
 26 C46     11.2360    -0.7460    22.8960 C.ar  1 LIG   0.0000 
 27 F47     11.3900    -2.0330    22.5960 F     1 LIG   0.0000 
 28 C48     12.3470     0.0790    23.0370 C.ar  1 LIG   0.0000 
 29 C50     12.1650     1.4220    23.3520 C.ar  1 LIG   0.0000 
 30 C52     10.8890     1.9480    23.5270 C.ar  1 LIG   0.0000 
 31 H16      8.3510     3.8850    24.0860 H     1 LIG   0.0000 
 32 H18      7.7110     1.4840    23.5610 H     1 LIG   0.0000 
 33 H48     13.2680    -0.2900    22.9140 H     1 LIG   0.0000 
 34 H50     12.9620     2.0170    23.4540 H     1 LIG   0.0000 
 35 H37      8.3580    -5.6450    23.7180 H     1 LIG   0.0000 
 36 H39      9.3010    -5.4870    25.9050 H     1 LIG   0.0000 
 37 H41      9.9960    -3.3530    26.7480 H     1 LIG   0.0000 
 38 H43      9.7380    -1.4060    25.3940 H     1 LIG   0.0000 
 39 H11      8.2380     6.4540    20.8300 H     1 LIG   0.0000 
 40 H12      6.7860     6.0890    21.4830 H     1 LIG   0.0000 
 41 H13      7.3360     7.6260    21.5230 H     1 LIG   0.0000 
 42 H91      9.5100     5.4540    24.9260 H     1 LIG   0.0000 
 43 H92     10.7250     6.4680    24.5250 H     1 LIG   0.0000 
 44 H121    11.7740     4.6360    23.3350 H     1 LIG   0.0000 
 45 H122    11.6770     4.3700    24.9440 H     1 LIG   0.0000 
 46 H22      7.9110    -0.6370    23.1460 H     1 LIG   0.0000 
 47 H231     8.6310    -0.8000    20.8630 H     1 LIG   0.0000 
 48 H232     9.6010    -2.0530    21.2550 H     1 LIG   0.0000 
 49 H291     5.3360    -0.3650    20.5800 H     1 LIG   0.0000 
 50 H292     6.9540    -0.1640    20.4930 H     1 LIG   0.0000 
 51 H331     8.5510    -4.3130    21.3080 H     1 LIG   0.0000 
 52 H332     7.0550    -4.3650    21.9610 H     1 LIG   0.0000 
 53 H7      10.0600     5.7690    22.0960 H     1 LIG   0.0000 
@<TRIPOS>BOND
  1   1   2  1   
  2   1  39  1   
  3   1  40  1   
  4   1  41  1   
  5   2   3  2   
  6   2   4  am  
  7   4   5  1   
  8   4  53  1   
  9   5   6  1   
 10   5  42  1   
 11   5  43  1   
 12   6   7  1   
 13   6  44  1   
 14   6  45  1   
 15   7   8  2   
 16   7  30  1   
 17   8   9  1   
 18   8  31  1   
 19   9  10  1   
 20   9  32  1   
 21  10  11  ar  
 22  10  30  ar  
 23  11  12  1   
 24  11  26  ar  
 25  12  13  1   
 26  12  25  1   
 27  12  46  1   
 28  13  14  1   
 29  13  47  1   
 30  13  48  1   
 31  14  15  am  
 32  14  19  1   
 33  15  16  2   
 34  15  17  1   
 35  17  18  1   
 36  17  49  1   
 37  17  50  1   
 38  19  20  1   
 39  19  51  1   
 40  19  52  1   
 41  20  21  ar  
 42  20  25  ar  
 43  21  22  ar  
 44  21  35  1   
 45  22  23  ar  
 46  22  36  1   
 47  23  24  ar  
 48  23  37  1   
 49  24  25  ar  
 50  24  38  1   
 51  26  27  1   
 52  26  28  ar  
 53  28  29  ar  
 54  28  33  1   
 55  29  30  ar  
 56  29  34  1   
@<TRIPOS>SUBSTRUCTURE
  1 LIG  11 GROUP 4 **** **** 0
@<TRIPOS>PROPERTY_DATA
index	|	ligand484
Name	|	NIR-THE-c33-3
ChemPlp	|	-93.7116
MM-GBSA Nwat=0	|	-29.539
STDEV0	|	2.6809
MM-GBSA Nwat=30	|	-60.5356
STDEV30	|	6.0209
MM-GBSA Nwat=60	|	-64.6868
STDEV60	|	6.336
ST.DEV < 10%	|	Y
RMSD LIG < 2	|	Y
DIST < 5	|	Y
DIST < 3.5	|	N

# MOE 2019.01 (io_trps.svl 2018.10)

@<TRIPOS>MOLECULE
ligand621
56 59 1 0 0 
SMALL
NO_CHARGES


@<TRIPOS>ATOM
  1 O1       5.4920    -3.1730    20.9060 O.2   1 LIG   0.0000 
  2 C2       6.4920    -2.5100    20.9160 C.2   1 LIG   0.0000 
  3 C3       6.4760    -1.1020    20.3440 C.3   1 LIG   0.0000 
  4 CL6      5.8010    -1.1380    18.6970 Cl    1 LIG   0.0000 
  5 N7       7.6720    -3.0320    21.4540 N.am  1 LIG   0.0000 
  6 C8       7.7830    -4.3790    22.0270 C.3   1 LIG   0.0000 
  7 C11      8.4670    -4.2390    23.3790 C.ar  1 LIG   0.0000 
  8 C12      8.4840    -5.3610    24.1920 C.ar  1 LIG   0.0000 
  9 C14      9.0980    -5.3310    25.4390 C.ar  1 LIG   0.0000 
 10 C16      9.7030    -4.1580    25.8790 C.ar  1 LIG   0.0000 
 11 C18      9.6860    -3.0310    25.0650 C.ar  1 LIG   0.0000 
 12 C20      9.0750    -3.0570    23.8160 C.ar  1 LIG   0.0000 
 13 C21      9.0800    -1.8100    22.9460 C.3   1 LIG   0.0000 
 14 C22     10.4160    -1.0870    23.0240 C.ar  1 LIG   0.0000 
 15 C23     11.5710    -1.7310    22.5910 C.ar  1 LIG   0.0000 
 16 C25     12.7880    -1.0630    22.6670 C.ar  1 LIG   0.0000 
 17 C27     12.8620     0.2320    23.1670 C.ar  1 LIG   0.0000 
 18 C29     11.6960     0.8580    23.5940 C.ar  1 LIG   0.0000 
 19 C30     11.7560     2.2750    24.1440 C.3   1 LIG   0.0000 
 20 N33     10.4540     2.9300    23.9540 N.am  1 LIG   0.0000 
 21 C35     10.3950     4.2700    23.6750 C.2   1 LIG   0.0000 
 22 O36     11.4060     4.9090    23.5850 O.2   1 LIG   0.0000 
 23 N37      9.1540     4.8930    23.4950 N.am  1 LIG   0.0000 
 24 C38      9.1110     6.3330    23.1960 C.3   1 LIG   0.0000 
 25 C41      7.9330     6.6670    22.2930 C.3   1 LIG   0.0000 
 26 O44      6.7400     6.0380    22.7420 O.3   1 LIG   0.0000 
 27 C45      6.8520     4.6240    22.6520 C.3   1 LIG   0.0000 
 28 C48      7.9270     4.0880    23.5860 C.3   1 LIG   0.0000 
 29 C51     10.4680     0.2080    23.5270 C.ar  1 LIG   0.0000 
 30 C53      8.9360    -2.2910    21.5140 C.3   1 LIG   0.0000 
 31 H12      8.0490    -6.2050    23.8770 H     1 LIG   0.0000 
 32 H14      9.1040    -6.1480    26.0170 H     1 LIG   0.0000 
 33 H16     10.1470    -4.1260    26.7750 H     1 LIG   0.0000 
 34 H18     10.1200    -2.1880    25.3820 H     1 LIG   0.0000 
 35 H23     11.5250    -2.6630    22.2300 H     1 LIG   0.0000 
 36 H25     13.6220    -1.5210    22.3570 H     1 LIG   0.0000 
 37 H27     13.7410     0.7070    23.2180 H     1 LIG   0.0000 
 38 H51      9.6340     0.6660    23.8360 H     1 LIG   0.0000 
 39 H31      5.9110    -0.5130    20.9230 H     1 LIG   0.0000 
 40 H32      7.4090    -0.7430    20.3140 H     1 LIG   0.0000 
 41 H81      8.3280    -4.9640    21.4270 H     1 LIG   0.0000 
 42 H82      6.8730    -4.7780    22.1440 H     1 LIG   0.0000 
 43 H21      8.3280    -1.1980    23.1940 H     1 LIG   0.0000 
 44 H301    11.9760     2.2450    25.1190 H     1 LIG   0.0000 
 45 H302    12.4620     2.7910    23.6580 H     1 LIG   0.0000 
 46 H381     9.9600     6.5980    22.7380 H     1 LIG   0.0000 
 47 H382     9.0220     6.8420    24.0520 H     1 LIG   0.0000 
 48 H411     7.7970     7.6580    22.2900 H     1 LIG   0.0000 
 49 H412     8.1360     6.3550    21.3650 H     1 LIG   0.0000 
 50 H451     7.0850     4.3750    21.7120 H     1 LIG   0.0000 
 51 H452     5.9740     4.2120    22.8980 H     1 LIG   0.0000 
 52 H481     7.5870     4.1160    24.5260 H     1 LIG   0.0000 
 53 H482     8.1360     3.1430    23.3350 H     1 LIG   0.0000 
 54 H531     8.9100    -1.5120    20.8870 H     1 LIG   0.0000 
 55 H532     9.7000    -2.8890    21.2710 H     1 LIG   0.0000 
 56 H33      9.6100     2.3970    24.0290 H     1 LIG   0.0000 
@<TRIPOS>BOND
  1   1   2  2   
  2   2   3  1   
  3   2   5  am  
  4   3   4  1   
  5   3  39  1   
  6   3  40  1   
  7   5   6  1   
  8   5  30  1   
  9   6   7  1   
 10   6  41  1   
 11   6  42  1   
 12   7   8  ar  
 13   7  12  ar  
 14   8   9  ar  
 15   8  31  1   
 16   9  10  ar  
 17   9  32  1   
 18  10  11  ar  
 19  10  33  1   
 20  11  12  ar  
 21  11  34  1   
 22  12  13  1   
 23  13  14  1   
 24  13  30  1   
 25  13  43  1   
 26  14  15  ar  
 27  14  29  ar  
 28  15  16  ar  
 29  15  35  1   
 30  16  17  ar  
 31  16  36  1   
 32  17  18  ar  
 33  17  37  1   
 34  18  19  1   
 35  18  29  ar  
 36  19  20  1   
 37  19  44  1   
 38  19  45  1   
 39  20  21  am  
 40  20  56  1   
 41  21  22  2   
 42  21  23  am  
 43  23  24  1   
 44  23  28  1   
 45  24  25  1   
 46  24  46  1   
 47  24  47  1   
 48  25  26  1   
 49  25  48  1   
 50  25  49  1   
 51  26  27  1   
 52  27  28  1   
 53  27  50  1   
 54  27  51  1   
 55  28  52  1   
 56  28  53  1   
 57  29  38  1   
 58  30  54  1   
 59  30  55  1   
@<TRIPOS>SUBSTRUCTURE
  1 LIG  29 GROUP 4 **** **** 0
@<TRIPOS>PROPERTY_DATA
index	|	ligand621
Name	|	TAM-UNI-d1c-7
ChemPlp	|	-98.6072
MM-GBSA Nwat=0	|	-31.9313
STDEV0	|	3.131
MM-GBSA Nwat=30	|	-60.0693
STDEV30	|	5.6832
MM-GBSA Nwat=60	|	-67.1989
STDEV60	|	4.9096
ST.DEV < 10%	|	Y
RMSD LIG < 2	|	Y
DIST < 5	|	Y
DIST < 3.5	|	N

# MOE 2019.01 (io_trps.svl 2018.10)

@<TRIPOS>MOLECULE
ligand080
55 58 1 0 0 
SMALL
NO_CHARGES


@<TRIPOS>ATOM
  1 O1       5.3760    -3.3390    21.2290 O.2   1 LIG   0.0000 
  2 C2       6.3680    -2.6640    21.2320 C.2   1 LIG   0.0000 
  3 C3       6.3220    -1.2450    20.6890 C.3   1 LIG   0.0000 
  4 CL6      5.7990    -1.2780    18.9870 Cl    1 LIG   0.0000 
  5 N7       7.5650    -3.1810    21.7350 N.am  1 LIG   0.0000 
  6 C8       7.7040    -4.5380    22.2790 C.3   1 LIG   0.0000 
  7 C11      8.4150    -4.4150    23.6190 C.ar  1 LIG   0.0000 
  8 C12      8.4620    -5.5530    24.4090 C.ar  1 LIG   0.0000 
  9 C14      9.1010    -5.5400    25.6440 C.ar  1 LIG   0.0000 
 10 C16      9.7010    -4.3680    26.0950 C.ar  1 LIG   0.0000 
 11 C18      9.6530    -3.2250    25.3030 C.ar  1 LIG   0.0000 
 12 C20      9.0170    -3.2340    24.0670 C.ar  1 LIG   0.0000 
 13 C21      8.9880    -1.9700    23.2220 C.3   1 LIG   0.0000 
 14 C22     10.3160    -1.2320    23.2870 C.ar  1 LIG   0.0000 
 15 C23     11.3700    -1.6770    22.4950 C.ar  1 LIG   0.0000 
 16 C25     12.5900    -1.0120    22.5460 C.ar  1 LIG   0.0000 
 17 F26     13.6010    -1.4340    21.7900 F     1 LIG   0.0000 
 18 C27     12.7180     0.0850    23.3920 C.ar  1 LIG   0.0000 
 19 N29     11.6880     0.4960    24.1470 N.ar  1 LIG   0.0000 
 20 C30     10.5010    -0.1280    24.1160 C.ar  1 LIG   0.0000 
 21 C31      9.3580     0.3680    24.9870 C.3   1 LIG   0.0000 
 22 N34      9.4720     1.8230    25.1630 N.am  1 LIG   0.0000 
 23 C36      9.1310     2.6660    24.1390 C.2   1 LIG   0.0000 
 24 O37      8.7390     2.2170    23.0970 O.2   1 LIG   0.0000 
 25 N38      9.2400     4.0510    24.3070 N.am  1 LIG   0.0000 
 26 C39      8.8690     4.9410    23.1950 C.3   1 LIG   0.0000 
 27 C42      8.2850     6.2460    23.7140 C.3   1 LIG   0.0000 
 28 O45      9.0690     6.7840    24.7710 O.3   1 LIG   0.0000 
 29 C46      9.0460     5.9230    25.9020 C.3   1 LIG   0.0000 
 30 C49      9.7000     4.5830    25.5980 C.3   1 LIG   0.0000 
 31 C52      8.8200    -2.4250    21.7840 C.3   1 LIG   0.0000 
 32 H12      8.0320    -6.3960    24.0860 H     1 LIG   0.0000 
 33 H14      9.1300    -6.3670    26.2050 H     1 LIG   0.0000 
 34 H16     10.1630    -4.3470    26.9820 H     1 LIG   0.0000 
 35 H18     10.0830    -2.3830    25.6290 H     1 LIG   0.0000 
 36 H23     11.2510    -2.4690    21.8960 H     1 LIG   0.0000 
 37 H27     13.5890     0.5730    23.4390 H     1 LIG   0.0000 
 38 H31      5.6750    -0.7030    21.2260 H     1 LIG   0.0000 
 39 H32      7.2320    -0.8350    20.7500 H     1 LIG   0.0000 
 40 H81      8.2440    -5.1030    21.6560 H     1 LIG   0.0000 
 41 H82      6.8020    -4.9500    22.4060 H     1 LIG   0.0000 
 42 H21      8.2340    -1.3740    23.4980 H     1 LIG   0.0000 
 43 H311     8.4860     0.1530    24.5470 H     1 LIG   0.0000 
 44 H312     9.4000    -0.0810    25.8800 H     1 LIG   0.0000 
 45 H391     8.1890     4.4830    22.6230 H     1 LIG   0.0000 
 46 H392     9.6840     5.1410    22.6510 H     1 LIG   0.0000 
 47 H421     8.2520     6.9080    22.9650 H     1 LIG   0.0000 
 48 H422     7.3580     6.0760    24.0500 H     1 LIG   0.0000 
 49 H461     8.0960     5.7660    26.1720 H     1 LIG   0.0000 
 50 H462     9.5380     6.3620    26.6540 H     1 LIG   0.0000 
 51 H491    10.6930     4.7040    25.5670 H     1 LIG   0.0000 
 52 H492     9.4660     3.9340    26.3220 H     1 LIG   0.0000 
 53 H521     8.7720    -1.6340    21.1740 H     1 LIG   0.0000 
 54 H522     9.5870    -3.0080    21.5140 H     1 LIG   0.0000 
 55 H34      9.7990     2.1970    26.0310 H     1 LIG   0.0000 
@<TRIPOS>BOND
  1   1   2  2   
  2   2   3  1   
  3   2   5  am  
  4   3   4  1   
  5   3  38  1   
  6   3  39  1   
  7   5   6  1   
  8   5  31  1   
  9   6   7  1   
 10   6  40  1   
 11   6  41  1   
 12   7   8  ar  
 13   7  12  ar  
 14   8   9  ar  
 15   8  32  1   
 16   9  10  ar  
 17   9  33  1   
 18  10  11  ar  
 19  10  34  1   
 20  11  12  ar  
 21  11  35  1   
 22  12  13  1   
 23  13  14  1   
 24  13  31  1   
 25  13  42  1   
 26  14  15  ar  
 27  14  20  ar  
 28  15  16  ar  
 29  15  36  1   
 30  16  17  1   
 31  16  18  ar  
 32  18  19  ar  
 33  18  37  1   
 34  19  20  ar  
 35  20  21  1   
 36  21  22  1   
 37  21  43  1   
 38  21  44  1   
 39  22  23  am  
 40  22  55  1   
 41  23  24  2   
 42  23  25  am  
 43  25  26  1   
 44  25  30  1   
 45  26  27  1   
 46  26  45  1   
 47  26  46  1   
 48  27  28  1   
 49  27  47  1   
 50  27  48  1   
 51  28  29  1   
 52  29  30  1   
 53  29  49  1   
 54  29  50  1   
 55  30  51  1   
 56  30  52  1   
 57  31  53  1   
 58  31  54  1   
@<TRIPOS>SUBSTRUCTURE
  1 LIG  14 GROUP 4 **** **** 0
@<TRIPOS>PROPERTY_DATA
index	|	ligand080
Name	|	DAR-DIA-cab-13
ChemPlp	|	-98.5408
MM-GBSA Nwat=0	|	-33.261
STDEV0	|	3.4799
MM-GBSA Nwat=30	|	-59.0159
STDEV30	|	4.9303
MM-GBSA Nwat=60	|	-62.3836
STDEV60	|	4.907
ST.DEV < 10%	|	Y
RMSD LIG < 2	|	Y
DIST < 5	|	Y
DIST < 3.5	|	N

# MOE 2019.01 (io_trps.svl 2018.10)

@<TRIPOS>MOLECULE
ligand093
56 58 1 0 0 
SMALL
NO_CHARGES


@<TRIPOS>ATOM
  1 C1      13.3630    -1.4210    22.0200 C.3   1 LIG   0.0000 
  2 H2      14.2200    -1.9150    22.1700 H     1 LIG   0.0000 
  3 H3      12.5970    -1.9750    22.3450 H     1 LIG   0.0000 
  4 H4      13.2510    -1.2380    21.0430 H     1 LIG   0.0000 
  5 O5      13.3950    -0.1920    22.7320 O.3   1 LIG   0.0000 
  6 C6      12.3400     0.6460    22.6770 C.ar  1 LIG   0.0000 
  7 C7      11.1960     0.2800    21.9760 C.ar  1 LIG   0.0000 
  8 H8      11.1460    -0.6030    21.5100 H     1 LIG   0.0000 
  9 C9      10.1220     1.1620    21.9340 C.ar  1 LIG   0.0000 
 10 C10      8.8720     0.7630    21.1680 C.3   1 LIG   0.0000 
 11 H11      8.1950     1.4970    21.2280 H     1 LIG   0.0000 
 12 H12      9.1050     0.6030    20.2090 H     1 LIG   0.0000 
 13 N13      8.3140    -0.4660    21.7470 N.3   1 LIG   0.0000 
 14 C14      6.8920    -0.5100    21.3680 C.3   1 LIG   0.0000 
 15 H15      6.8220    -0.4900    20.3710 H     1 LIG   0.0000 
 16 H16      6.4300     0.2900    21.7500 H     1 LIG   0.0000 
 17 C17      6.2120    -1.7680    21.8870 C.3   1 LIG   0.0000 
 18 H18      6.0630    -1.6740    22.8710 H     1 LIG   0.0000 
 19 H19      5.3320    -1.8750    21.4250 H     1 LIG   0.0000 
 20 N20      7.0320    -2.9650    21.6390 N.am  1 LIG   0.0000 
 21 C21      6.3950    -4.1870    21.4000 C.2   1 LIG   0.0000 
 22 O22      5.1970    -4.2490    21.3990 O.2   1 LIG   0.0000 
 23 C23      7.2210    -5.4360    21.1420 C.3   1 LIG   0.0000 
 24 H24      7.0590    -5.7560    20.2080 H     1 LIG   0.0000 
 25 H25      8.1920    -5.2240    21.2570 H     1 LIG   0.0000 
 26 CL26     6.7500    -6.7080    22.2950 Cl    1 LIG   0.0000 
 27 C27      8.5030    -2.9310    21.6240 C.3   1 LIG   0.0000 
 28 H28      8.8400    -3.6590    21.0270 H     1 LIG   0.0000 
 29 H29      8.8420    -3.0780    22.5530 H     1 LIG   0.0000 
 30 C30      9.0170    -1.5920    21.1140 C.3   1 LIG   0.0000 
 31 H31      9.9930    -1.5210    21.3170 H     1 LIG   0.0000 
 32 H32      8.8780    -1.5470    20.1250 H     1 LIG   0.0000 
 33 C33     10.2250     2.3840    22.5930 C.ar  1 LIG   0.0000 
 34 C34     11.3530     2.7580    23.2890 C.ar  1 LIG   0.0000 
 35 C35     12.4250     1.8700    23.3300 C.ar  1 LIG   0.0000 
 36 H36     13.2570     2.1140    23.8280 H     1 LIG   0.0000 
 37 C37     11.1480     4.0690    23.8610 C.2   1 LIG   0.0000 
 38 C38     12.1850     4.8050    24.6930 C.3   1 LIG   0.0000 
 39 H39     13.0390     4.8750    24.1770 H     1 LIG   0.0000 
 40 H40     12.3490     4.3030    25.5420 H     1 LIG   0.0000 
 41 C41     11.6760     6.1990    25.0200 C.3   1 LIG   0.0000 
 42 H42     11.5090     6.7010    24.1710 H     1 LIG   0.0000 
 43 H43     10.8240     6.1300    25.5390 H     1 LIG   0.0000 
 44 N44     12.6800     6.9130    25.8210 N.am  1 LIG   0.0000 
 45 H45     13.5640     7.1500    25.4180 H     1 LIG   0.0000 
 46 C46     12.4060     7.2520    27.1200 C.2   1 LIG   0.0000 
 47 C47     13.4450     7.9900    27.9480 C.3   1 LIG   0.0000 
 48 H48     14.2630     8.1470    27.3950 H     1 LIG   0.0000 
 49 H49     13.0710     8.8690    28.2460 H     1 LIG   0.0000 
 50 H50     13.6840     7.4410    28.7490 H     1 LIG   0.0000 
 51 O51     11.3450     6.9670    27.6030 O.2   1 LIG   0.0000 
 52 C52      9.9670     4.5650    23.5720 C.2   1 LIG   0.0000 
 53 H53      9.6100     5.4550    23.8580 H     1 LIG   0.0000 
 54 C54      9.2450     3.5360    22.7260 C.3   1 LIG   0.0000 
 55 H55      8.4060     3.2340    23.1780 H     1 LIG   0.0000 
 56 H56      9.0220     3.9140    21.8270 H     1 LIG   0.0000 
@<TRIPOS>BOND
  1   1   2  1   
  2   1   3  1   
  3   1   4  1   
  4   1   5  1   
  5   5   6  1   
  6   6   7  ar  
  7   6  35  ar  
  8   7   8  1   
  9   7   9  ar  
 10   9  10  1   
 11   9  33  ar  
 12  10  11  1   
 13  10  12  1   
 14  10  13  1   
 15  13  14  1   
 16  13  30  1   
 17  14  15  1   
 18  14  16  1   
 19  14  17  1   
 20  17  18  1   
 21  17  19  1   
 22  17  20  1   
 23  20  21  am  
 24  20  27  1   
 25  21  22  2   
 26  21  23  1   
 27  23  24  1   
 28  23  25  1   
 29  23  26  1   
 30  27  28  1   
 31  27  29  1   
 32  27  30  1   
 33  30  31  1   
 34  30  32  1   
 35  33  34  ar  
 36  33  54  1   
 37  34  35  ar  
 38  34  37  1   
 39  35  36  1   
 40  37  38  1   
 41  37  52  2   
 42  38  39  1   
 43  38  40  1   
 44  38  41  1   
 45  41  42  1   
 46  41  43  1   
 47  41  44  1   
 48  44  45  1   
 49  44  46  am  
 50  46  47  1   
 51  46  51  2   
 52  47  48  1   
 53  47  49  1   
 54  47  50  1   
 55  52  53  1   
 56  52  54  1   
 57  54  55  1   
 58  54  56  1   
@<TRIPOS>SUBSTRUCTURE
  1 LIG   9 GROUP 4 **** **** 0
@<TRIPOS>PROPERTY_DATA
index	|	ligand093
Name	|	DAR-DIA-fb2-13
ChemPlp	|	-95.9119
MM-GBSA Nwat=0	|	-33.2819
STDEV0	|	3.5267
MM-GBSA Nwat=30	|	-58.0305
STDEV30	|	4.0983
MM-GBSA Nwat=60	|	-64.0284
STDEV60	|	3.9701
ST.DEV < 10%	|	Y
RMSD LIG < 2	|	Y
DIST < 5	|	Y
DIST < 3.5	|	N

# MOE 2019.01 (io_trps.svl 2018.10)

@<TRIPOS>MOLECULE
ligand045
66 70 1 0 0 
SMALL
USER_CHARGES


@<TRIPOS>ATOM
  1 C1      13.6000    -1.4520    21.6920 C.3   1 LIG   0.0000 
  2 C5      12.4820    -0.6780    22.3710 C.ar  1 LIG   0.0000 
  3 C6      11.1980    -0.7080    21.8370 C.ar  1 LIG   0.0000 
  4 C8      10.1820     0.0030    22.4660 C.ar  1 LIG   0.0000 
  5 C9       8.7870    -0.0460    21.8630 C.3   1 LIG   0.0000 
  6 C10      8.4850    -1.4880    21.4860 C.3   1 LIG   0.0000 
  7 N13      7.2740    -1.5720    20.6560 N.am  1 LIG   0.0000 
  8 C14      6.4430    -2.6940    20.7600 C.2   1 LIG   0.0000 
  9 O15      5.4520    -2.7710    20.0870 O.2   1 LIG   0.0000 
 10 C16      6.7950    -3.8130    21.7260 C.3   1 LIG   0.0000 
 11 CL19     6.7020    -5.3770    20.8820 Cl    1 LIG   0.0000 
 12 C20      6.9110    -0.4970    19.7200 C.3   1 LIG   0.0000 
 13 C23      7.3620     0.8590    20.2410 C.3   1 LIG   0.0000 
 14 O26      8.6960     0.8100    20.7330 O.3   1 LIG   0.0000 
 15 C27     10.4440     0.7380    23.6190 C.ar  1 LIG   0.0000 
 16 C28      9.4020     1.4880    24.2930 C.ar  1 LIG   0.0000 
 17 C29      8.2870     0.7850    24.7250 C.ar  1 LIG   0.0000 
 18 F30      8.2070    -0.5250    24.5090 F     1 LIG   0.0000 
 19 C31      7.2530     1.4450    25.3790 C.ar  1 LIG   0.0000 
 20 C33      7.3310     2.8110    25.6160 C.ar  1 LIG   0.0000 
 21 C35      8.4630     3.4870    25.1760 C.ar  1 LIG   0.0000 
 22 C36      9.4950     2.8590    24.4910 C.ar  1 LIG   0.0000 
 23 C37     10.7140     3.6120    23.9660 C.3   1 LIG   0.0000 
 24 C40     10.8700     4.9290    24.6950 C.3   1 LIG   0.0000 
 25 C41     11.9820     5.7110    24.0140 C.2   1 LIG   0.0000 
 26 O42     12.5750     6.5600    24.6200 O.2   1 LIG   0.0000 
 27 C43     12.3410     5.4180    22.5650 C.3   1 LIG   0.0000 
 28 C44     13.3600     6.3990    22.0600 C.3   1 LIG   0.0000 
 29 C47     13.7710     4.9930    22.3800 C.3   1 LIG   0.0000 
 30 O48     14.4980     4.9170    23.5980 O.3   1 LIG   0.0000 
 31 N50      9.5750     5.6210    24.6060 N.4   1 LIG   1.0000 
 32 C51      9.7050     7.0230    25.0290 C.3   1 LIG   0.0000 
 33 C55      8.5720     4.9710    25.4690 C.3   1 LIG   0.0000 
 34 C58     11.7310     0.7650    24.1480 C.ar  1 LIG   0.0000 
 35 C60     12.7500     0.0550    23.5220 C.ar  1 LIG   0.0000 
 36 F61     13.9810     0.0780    24.0240 F     1 LIG   0.0000 
 37 H6      11.0070    -1.2360    21.0090 H     1 LIG   0.0000 
 38 H58     11.9220     1.2930    24.9760 H     1 LIG   0.0000 
 39 H31      6.4480     0.9330    25.6800 H     1 LIG   0.0000 
 40 H33      6.5940     3.2950    26.0890 H     1 LIG   0.0000 
 41 H11     13.2390    -1.9200    20.8850 H     1 LIG   0.0000 
 42 H12     14.3230    -0.8190    21.4150 H     1 LIG   0.0000 
 43 H13     13.9730    -2.1260    22.3290 H     1 LIG   0.0000 
 44 H9       8.1260     0.2540    22.5510 H     1 LIG   0.0000 
 45 H101     9.2590    -1.8610    20.9740 H     1 LIG   0.0000 
 46 H102     8.3480    -2.0230    22.3200 H     1 LIG   0.0000 
 47 H161     7.7230    -3.6760    22.0720 H     1 LIG   0.0000 
 48 H162     6.1510    -3.8080    22.4910 H     1 LIG   0.0000 
 49 H201     5.9180    -0.4870    19.6020 H     1 LIG   0.0000 
 50 H202     7.3500    -0.6700    18.8380 H     1 LIG   0.0000 
 51 H231     7.3140     1.5260    19.4970 H     1 LIG   0.0000 
 52 H232     6.7530     1.1420    20.9810 H     1 LIG   0.0000 
 53 H371    10.5980     3.7880    22.9890 H     1 LIG   0.0000 
 54 H372    11.5320     3.0560    24.1100 H     1 LIG   0.0000 
 55 H40     11.1050     4.7640    25.6530 H     1 LIG   0.0000 
 56 H43     11.6390     5.0710    21.9430 H     1 LIG   0.0000 
 57 H441    13.3290     6.7070    21.1090 H     1 LIG   0.0000 
 58 H442    13.6600     7.1530    22.6450 H     1 LIG   0.0000 
 59 H47     14.0030     4.3700    21.6330 H     1 LIG   0.0000 
 60 H50      9.2560     5.5940    23.6590 H     1 LIG   0.0000 
 61 H511     8.8150     7.4750    24.9610 H     1 LIG   0.0000 
 62 H512    10.0260     7.0580    25.9750 H     1 LIG   0.0000 
 63 H513    10.3620     7.4900    24.4370 H     1 LIG   0.0000 
 64 H551     7.6820     5.4000    25.3120 H     1 LIG   0.0000 
 65 H552     8.8370     5.0950    26.4260 H     1 LIG   0.0000 
 66 H48     14.5620     5.8280    24.0050 H     1 LIG   0.0000 
@<TRIPOS>BOND
  1   1   2  1   
  2   1  41  1   
  3   1  42  1   
  4   1  43  1   
  5   2   3  ar  
  6   2  35  ar  
  7   3   4  ar  
  8   3  37  1   
  9   4   5  1   
 10   4  15  ar  
 11   5   6  1   
 12   5  14  1   
 13   5  44  1   
 14   6   7  1   
 15   6  45  1   
 16   6  46  1   
 17   7   8  am  
 18   7  12  1   
 19   8   9  2   
 20   8  10  1   
 21  10  11  1   
 22  10  47  1   
 23  10  48  1   
 24  12  13  1   
 25  12  49  1   
 26  12  50  1   
 27  13  14  1   
 28  13  51  1   
 29  13  52  1   
 30  15  16  1   
 31  15  34  ar  
 32  16  17  ar  
 33  16  22  ar  
 34  17  18  1   
 35  17  19  ar  
 36  19  20  ar  
 37  19  39  1   
 38  20  21  ar  
 39  20  40  1   
 40  21  22  ar  
 41  21  33  1   
 42  22  23  1   
 43  23  24  1   
 44  23  53  1   
 45  23  54  1   
 46  24  25  1   
 47  24  31  1   
 48  24  55  1   
 49  25  26  2   
 50  25  27  1   
 51  27  28  1   
 52  27  29  1   
 53  27  56  1   
 54  28  29  1   
 55  28  57  1   
 56  28  58  1   
 57  29  30  1   
 58  29  59  1   
 59  30  66  1   
 60  31  32  1   
 61  31  33  1   
 62  31  60  1   
 63  32  61  1   
 64  32  62  1   
 65  32  63  1   
 66  33  64  1   
 67  33  65  1   
 68  34  35  ar  
 69  34  38  1   
 70  35  36  1   
@<TRIPOS>SUBSTRUCTURE
  1 LIG  15 GROUP 4 **** **** 0
@<TRIPOS>PROPERTY_DATA
index	|	ligand045
Name	|	BOG-INS-177-1
ChemPlp	|	-95.4552
MM-GBSA Nwat=0	|	-34.1037
STDEV0	|	4.4224
MM-GBSA Nwat=30	|	-57.1891
STDEV30	|	5.2928
MM-GBSA Nwat=60	|	-64.5833
STDEV60	|	5.4996
ST.DEV < 10%	|	Y
RMSD LIG < 2	|	Y
DIST < 5	|	Y
DIST < 3.5	|	N

# MOE 2019.01 (io_trps.svl 2018.10)

@<TRIPOS>MOLECULE
ligand300
56 58 1 0 0 
SMALL
USER_CHARGES


@<TRIPOS>ATOM
  1 C1      12.3970     6.9240    26.4910 C.3   1 LIG   0.0000 
  2 O5      12.3980     7.1830    25.0940 O.3   1 LIG   0.0000 
  3 C6      12.8200     6.0190    24.3980 C.3   1 LIG   0.0000 
  4 C7      12.8530     6.2920    22.9030 C.3   1 LIG   0.0000 
  5 C10     13.3000     5.0480    22.1530 C.3   1 LIG   0.0000 
  6 C13     12.3480     3.8990    22.4440 C.3   1 LIG   0.0000 
  7 C16     12.3060     3.6220    23.9380 C.3   1 LIG   0.0000 
  8 O17     11.4150     2.5510    24.2090 O.3   1 LIG   0.0000 
  9 C18     11.7450     1.2920    23.8520 C.ar  1 LIG   0.0000 
 10 C19     12.9490     1.0580    23.1950 C.ar  1 LIG   0.0000 
 11 C21     13.2970    -0.2360    22.8210 C.ar  1 LIG   0.0000 
 12 C23     12.4420    -1.2960    23.1050 C.ar  1 LIG   0.0000 
 13 C25     11.2410    -1.0490    23.7620 C.ar  1 LIG   0.0000 
 14 C26     10.3000    -2.1990    24.0770 C.3   1 LIG   0.0000 
 15 N29      9.6280    -2.6330    22.8440 N.4   1 LIG   1.0000 
 16 C31      8.6200    -3.6340    23.2320 C.3   1 LIG   0.0000 
 17 C34      7.8210    -4.1290    22.0370 C.3   1 LIG   0.0000 
 18 N37      7.3880    -3.0150    21.1790 N.am  1 LIG   0.0000 
 19 C38      6.1680    -3.1290    20.5020 C.2   1 LIG   0.0000 
 20 O39      5.5020    -4.1190    20.6290 O.2   1 LIG   0.0000 
 21 C40      5.6870    -1.9990    19.6070 C.3   1 LIG   0.0000 
 22 CL43     5.8110    -0.4540    20.4830 Cl    1 LIG   0.0000 
 23 C44      8.1790    -1.7850    21.0160 C.3   1 LIG   0.0000 
 24 C47      8.9610    -1.4480    22.2770 C.3   1 LIG   0.0000 
 25 C50     10.8820     0.2410    24.1400 C.ar  1 LIG   0.0000 
 26 C52     11.8660     4.8710    24.6840 C.3   1 LIG   0.0000 
 27 H19     13.5640     1.8200    22.9930 H     1 LIG   0.0000 
 28 H21     14.1620    -0.4040    22.3480 H     1 LIG   0.0000 
 29 H23     12.6890    -2.2280    22.8390 H     1 LIG   0.0000 
 30 H50     10.0160     0.4090    24.6120 H     1 LIG   0.0000 
 31 H11     12.1010     7.7440    26.9810 H     1 LIG   0.0000 
 32 H12     11.7700     6.1710    26.6900 H     1 LIG   0.0000 
 33 H13     13.3200     6.6760    26.7840 H     1 LIG   0.0000 
 34 H6      13.7380     5.7670    24.7050 H     1 LIG   0.0000 
 35 H71     13.4920     7.0380    22.7170 H     1 LIG   0.0000 
 36 H72     11.9380     6.5530    22.5940 H     1 LIG   0.0000 
 37 H101    14.2220     4.7970    22.4470 H     1 LIG   0.0000 
 38 H102    13.3040     5.2360    21.1710 H     1 LIG   0.0000 
 39 H131    11.4310     4.1410    22.1260 H     1 LIG   0.0000 
 40 H132    12.6610     3.0800    21.9640 H     1 LIG   0.0000 
 41 H16     13.2230     3.3670    24.2460 H     1 LIG   0.0000 
 42 H261    10.8210    -2.9620    24.4590 H     1 LIG   0.0000 
 43 H262     9.6150    -1.8970    24.7410 H     1 LIG   0.0000 
 44 H29     10.2840    -3.0190    22.1950 H     1 LIG   0.0000 
 45 H311     7.9930    -3.2220    23.8930 H     1 LIG   0.0000 
 46 H312     9.0850    -4.4130    23.6550 H     1 LIG   0.0000 
 47 H341     8.3910    -4.7500    21.4990 H     1 LIG   0.0000 
 48 H342     7.0130    -4.6180    22.3660 H     1 LIG   0.0000 
 49 H401     6.2530    -1.9620    18.7840 H     1 LIG   0.0000 
 50 H402     4.7340    -2.1600    19.3490 H     1 LIG   0.0000 
 51 H441     7.5610    -1.0270    20.8060 H     1 LIG   0.0000 
 52 H442     8.8210    -1.9100    20.2600 H     1 LIG   0.0000 
 53 H471     9.6550    -0.7630    22.0540 H     1 LIG   0.0000 
 54 H472     8.3310    -1.0760    22.9590 H     1 LIG   0.0000 
 55 H521    10.9450     5.1250    24.3870 H     1 LIG   0.0000 
 56 H522    11.8590     4.6840    25.6660 H     1 LIG   0.0000 
@<TRIPOS>BOND
  1   1   2  1   
  2   1  31  1   
  3   1  32  1   
  4   1  33  1   
  5   2   3  1   
  6   3   4  1   
  7   3  26  1   
  8   3  34  1   
  9   4   5  1   
 10   4  35  1   
 11   4  36  1   
 12   5   6  1   
 13   5  37  1   
 14   5  38  1   
 15   6   7  1   
 16   6  39  1   
 17   6  40  1   
 18   7   8  1   
 19   7  26  1   
 20   7  41  1   
 21   8   9  1   
 22   9  10  ar  
 23   9  25  ar  
 24  10  11  ar  
 25  10  27  1   
 26  11  12  ar  
 27  11  28  1   
 28  12  13  ar  
 29  12  29  1   
 30  13  14  1   
 31  13  25  ar  
 32  14  15  1   
 33  14  42  1   
 34  14  43  1   
 35  15  16  1   
 36  15  24  1   
 37  15  44  1   
 38  16  17  1   
 39  16  45  1   
 40  16  46  1   
 41  17  18  1   
 42  17  47  1   
 43  17  48  1   
 44  18  19  am  
 45  18  23  1   
 46  19  20  2   
 47  19  21  1   
 48  21  22  1   
 49  21  49  1   
 50  21  50  1   
 51  23  24  1   
 52  23  51  1   
 53  23  52  1   
 54  24  53  1   
 55  24  54  1   
 56  25  30  1   
 57  26  55  1   
 58  26  56  1   
@<TRIPOS>SUBSTRUCTURE
  1 LIG  25 GROUP 4 **** **** 0
@<TRIPOS>PROPERTY_DATA
index	|	ligand300
Name	|	MAK-UNK-3c3-1
ChemPlp	|	-95.2456
MM-GBSA Nwat=0	|	-36.7178
STDEV0	|	3.0441
MM-GBSA Nwat=30	|	-56.9452
STDEV30	|	3.8894
MM-GBSA Nwat=60	|	-57.2035
STDEV60	|	3.9215
ST.DEV < 10%	|	Y
RMSD LIG < 2	|	Y
DIST < 5	|	Y
DIST < 3.5	|	Y

# MOE 2019.01 (io_trps.svl 2018.10)

@<TRIPOS>MOLECULE
ligand414
54 58 1 0 0 
SMALL
USER_CHARGES


@<TRIPOS>ATOM
  1 O1       5.5000    -3.3980    20.0860 O.2   1 LIG   0.0000 
  2 C2       6.0820    -2.3550    20.1970 C.2   1 LIG   0.0000 
  3 C3       5.4850    -1.0850    19.6130 C.3   1 LIG   0.0000 
  4 CL6      6.7230    -0.2320    18.6590 Cl    1 LIG   0.0000 
  5 N7       7.3120    -2.3080    20.8650 N.am  1 LIG   0.0000 
  6 C8       7.9910    -1.0060    20.9750 C.3   1 LIG   0.0000 
  7 C11      8.8000    -0.8980    22.2590 C.3   1 LIG   0.0000 
  8 N14      9.5880    -2.1150    22.5160 N.4   1 LIG   1.0000 
  9 C15     10.3620    -1.8880    23.7460 C.3   1 LIG   0.0000 
 10 C18     11.4860    -0.9020    23.4630 C.ar  1 LIG   0.0000 
 11 C19     12.6420    -1.3950    22.8670 C.ar  1 LIG   0.0000 
 12 C21     13.6970    -0.5320    22.5910 C.ar  1 LIG   0.0000 
 13 C23     13.6060     0.8200    22.9060 C.ar  1 LIG   0.0000 
 14 C25     12.4530     1.3200    23.5020 C.ar  1 LIG   0.0000 
 15 C26     12.3770     2.6750    23.8100 C.ar  1 LIG   0.0000 
 16 C28     11.2230     3.1710    24.4050 C.ar  1 LIG   0.0000 
 17 C30     10.1520     2.3310    24.6940 C.ar  1 LIG   0.0000 
 18 C32     10.2590     0.9820    24.3750 C.ar  1 LIG   0.0000 
 19 C34     11.3990     0.4530    23.7780 C.ar  1 LIG   0.0000 
 20 C35      8.6420    -3.2230    22.7160 C.3   1 LIG   0.0000 
 21 C38      7.8920    -3.5370    21.4310 C.3   1 LIG   0.0000 
 22 C39      6.8390    -4.5840    21.7540 C.2   1 LIG   0.0000 
 23 C40      6.8020    -5.8450    21.2380 C.2   1 LIG   0.0000 
 24 N42      5.7110    -6.4650    21.7720 N.pl3 1 LIG   0.0000 
 25 C43      5.0670    -5.6020    22.6160 C.ar  1 LIG   0.0000 
 26 N44      3.9620    -5.7440    23.3690 N.ar  1 LIG   0.0000 
 27 C46      3.4800    -4.7620    24.1450 C.ar  1 LIG   0.0000 
 28 C48      4.1290    -3.5340    24.1950 C.ar  1 LIG   0.0000 
 29 C50      5.2750    -3.3650    23.4260 C.ar  1 LIG   0.0000 
 30 C52      5.7450    -4.4070    22.6330 C.ar  1 LIG   0.0000 
 31 H19     12.7130    -2.3660    22.6370 H     1 LIG   0.0000 
 32 H21     14.5280    -0.8860    22.1620 H     1 LIG   0.0000 
 33 H23     14.3700     1.4330    22.7040 H     1 LIG   0.0000 
 34 H26     13.1430     3.2840    23.6050 H     1 LIG   0.0000 
 35 H28     11.1610     4.1440    24.6280 H     1 LIG   0.0000 
 36 H30      9.3230     2.6900    25.1230 H     1 LIG   0.0000 
 37 H32      9.4930     0.3730    24.5820 H     1 LIG   0.0000 
 38 H40      7.4520    -6.2410    20.5900 H     1 LIG   0.0000 
 39 H46      2.6530    -4.9120    24.6870 H     1 LIG   0.0000 
 40 H48      3.7820    -2.7920    24.7690 H     1 LIG   0.0000 
 41 H50      5.7630    -2.4920    23.4430 H     1 LIG   0.0000 
 42 H31      4.7130    -1.3200    19.0230 H     1 LIG   0.0000 
 43 H32      5.1700    -0.4930    20.3550 H     1 LIG   0.0000 
 44 H81      7.3030    -0.2810    20.9630 H     1 LIG   0.0000 
 45 H82      8.6060    -0.8950    20.1940 H     1 LIG   0.0000 
 46 H111     9.4230    -0.1200    22.1840 H     1 LIG   0.0000 
 47 H112     8.1740    -0.7510    23.0240 H     1 LIG   0.0000 
 48 H14     10.1980    -2.3080    21.7470 H     1 LIG   0.0000 
 49 H151    10.7490    -2.7540    24.0600 H     1 LIG   0.0000 
 50 H152     9.7610    -1.5150    24.4530 H     1 LIG   0.0000 
 51 H351     7.9840    -2.9670    23.4240 H     1 LIG   0.0000 
 52 H352     9.1470    -4.0350    23.0070 H     1 LIG   0.0000 
 53 H38      8.5360    -3.9230    20.7700 H     1 LIG   0.0000 
 54 H42      5.4260    -7.4030    21.5760 H     1 LIG   0.0000 
@<TRIPOS>BOND
  1   1   2  2   
  2   2   3  1   
  3   2   5  am  
  4   3   4  1   
  5   3  42  1   
  6   3  43  1   
  7   5   6  1   
  8   5  21  1   
  9   6   7  1   
 10   6  44  1   
 11   6  45  1   
 12   7   8  1   
 13   7  46  1   
 14   7  47  1   
 15   8   9  1   
 16   8  20  1   
 17   8  48  1   
 18   9  10  1   
 19   9  49  1   
 20   9  50  1   
 21  10  11  ar  
 22  10  19  ar  
 23  11  12  ar  
 24  11  31  1   
 25  12  13  ar  
 26  12  32  1   
 27  13  14  ar  
 28  13  33  1   
 29  14  15  ar  
 30  14  19  ar  
 31  15  16  ar  
 32  15  34  1   
 33  16  17  ar  
 34  16  35  1   
 35  17  18  ar  
 36  17  36  1   
 37  18  19  ar  
 38  18  37  1   
 39  20  21  1   
 40  20  51  1   
 41  20  52  1   
 42  21  22  1   
 43  21  53  1   
 44  22  23  2   
 45  22  30  1   
 46  23  24  1   
 47  23  38  1   
 48  24  25  1   
 49  24  54  1   
 50  25  26  ar  
 51  25  30  ar  
 52  26  27  ar  
 53  27  28  ar  
 54  27  39  1   
 55  28  29  ar  
 56  28  40  1   
 57  29  30  ar  
 58  29  41  1   
@<TRIPOS>SUBSTRUCTURE
  1 LIG   7 GROUP 4 **** **** 0
@<TRIPOS>PROPERTY_DATA
index	|	ligand414
Name	|	MIH-UNI-e57-1
ChemPlp	|	-103.406
MM-GBSA Nwat=0	|	-31.7896
STDEV0	|	2.7966
MM-GBSA Nwat=30	|	-56.314
STDEV30	|	4.2453
MM-GBSA Nwat=60	|	-61.2653
STDEV60	|	4.1896
ST.DEV < 10%	|	Y
RMSD LIG < 2	|	Y
DIST < 5	|	Y
DIST < 3.5	|	N

# MOE 2019.01 (io_trps.svl 2018.10)

@<TRIPOS>MOLECULE
ligand052
51 54 1 0 0 
SMALL
NO_CHARGES


@<TRIPOS>ATOM
  1 O1       5.4570    -3.9530    21.6810 O.2   1 LIG   0.0000 
  2 C2       6.3140    -3.1140    21.6230 C.2   1 LIG   0.0000 
  3 C3       6.0990    -1.8650    20.7840 C.3   1 LIG   0.0000 
  4 CL6      5.7000    -2.3330    19.1140 Cl    1 LIG   0.0000 
  5 N7       7.5110    -3.2870    22.3280 N.am  1 LIG   0.0000 
  6 C8       7.6930    -4.5030    23.1350 C.3   1 LIG   0.0000 
  7 C11      8.5500    -4.2130    24.3580 C.3   1 LIG   0.0000 
  8 O14      9.7030    -3.4550    24.0150 O.3   1 LIG   0.0000 
  9 C15      9.3250    -2.1640    23.5560 C.3   1 LIG   0.0000 
 10 C16     10.5480    -1.2920    23.3270 C.ar  1 LIG   0.0000 
 11 C17     11.6240    -1.7850    22.5950 C.ar  1 LIG   0.0000 
 12 C19     12.7360    -0.9760    22.3960 C.ar  1 LIG   0.0000 
 13 F20     13.7810    -1.4320    21.7110 F     1 LIG   0.0000 
 14 C21     12.7950     0.3170    22.9050 C.ar  1 LIG   0.0000 
 15 C23     11.7270     0.8240    23.6370 C.ar  1 LIG   0.0000 
 16 C24     10.6370    -0.0030    23.8410 C.ar  1 LIG   0.0000 
 17 C25      9.6450     0.7480    24.6950 C.3   1 LIG   0.0000 
 18 C28      9.9730     2.1970    24.4060 C.3   1 LIG   0.0000 
 19 C31     11.4870     2.1620    24.3010 C.3   1 LIG   0.0000 
 20 C32     12.0190     3.3180    23.4690 C.3   1 LIG   0.0000 
 21 C35     11.5520     4.6320    24.0710 C.ar  1 LIG   0.0000 
 22 C36     12.4020     5.3340    24.9190 C.ar  1 LIG   0.0000 
 23 C38     11.9620     6.5350    25.4630 C.ar  1 LIG   0.0000 
 24 O39     12.7730     7.2290    26.2890 O.3   1 LIG   0.0000 
 25 C41     10.6970     7.0360    25.1720 C.ar  1 LIG   0.0000 
 26 C43      9.8670     6.3150    24.3200 C.ar  1 LIG   0.0000 
 27 F44      8.6560     6.7850    24.0350 F     1 LIG   0.0000 
 28 C45     10.2830     5.1110    23.7630 C.ar  1 LIG   0.0000 
 29 C47      8.5530    -2.2530    22.2490 C.3   1 LIG   0.0000 
 30 H17     11.5970    -2.7100    22.2160 H     1 LIG   0.0000 
 31 H21     13.6050     0.8810    22.7450 H     1 LIG   0.0000 
 32 H36     13.3120     4.9800    25.1340 H     1 LIG   0.0000 
 33 H41     10.3900     7.9010    25.5690 H     1 LIG   0.0000 
 34 H45      9.6800     4.5980    23.1520 H     1 LIG   0.0000 
 35 H31      5.3470    -1.3300    21.1690 H     1 LIG   0.0000 
 36 H32      6.9340    -1.3150    20.7860 H     1 LIG   0.0000 
 37 H81      8.1420    -5.2030    22.5790 H     1 LIG   0.0000 
 38 H82      6.7990    -4.8370    23.4330 H     1 LIG   0.0000 
 39 H111     8.0070    -3.6980    25.0210 H     1 LIG   0.0000 
 40 H112     8.8390    -5.0790    24.7650 H     1 LIG   0.0000 
 41 H15      8.7440    -1.7330    24.2470 H     1 LIG   0.0000 
 42 H251     9.7740     0.5380    25.6640 H     1 LIG   0.0000 
 43 H252     8.7060     0.5330    24.4290 H     1 LIG   0.0000 
 44 H281     9.5560     2.5000    23.5490 H     1 LIG   0.0000 
 45 H282     9.6740     2.7930    25.1510 H     1 LIG   0.0000 
 46 H31     11.8980     2.1750    25.2130 H     1 LIG   0.0000 
 47 H321    13.0180     3.2910    23.4620 H     1 LIG   0.0000 
 48 H322    11.6770     3.2400    22.5330 H     1 LIG   0.0000 
 49 H471     8.1250    -1.3690    22.0600 H     1 LIG   0.0000 
 50 H472     9.1860    -2.4810    21.5090 H     1 LIG   0.0000 
 51 H39     13.6900     7.4900    25.9860 H     1 LIG   0.0000 
@<TRIPOS>BOND
  1   1   2  2   
  2   2   3  1   
  3   2   5  am  
  4   3   4  1   
  5   3  35  1   
  6   3  36  1   
  7   5   6  1   
  8   5  29  1   
  9   6   7  1   
 10   6  37  1   
 11   6  38  1   
 12   7   8  1   
 13   7  39  1   
 14   7  40  1   
 15   8   9  1   
 16   9  10  1   
 17   9  29  1   
 18   9  41  1   
 19  10  11  ar  
 20  10  16  ar  
 21  11  12  ar  
 22  11  30  1   
 23  12  13  1   
 24  12  14  ar  
 25  14  15  ar  
 26  14  31  1   
 27  15  16  ar  
 28  15  19  1   
 29  16  17  1   
 30  17  18  1   
 31  17  42  1   
 32  17  43  1   
 33  18  19  1   
 34  18  44  1   
 35  18  45  1   
 36  19  20  1   
 37  19  46  1   
 38  20  21  1   
 39  20  47  1   
 40  20  48  1   
 41  21  22  ar  
 42  21  28  ar  
 43  22  23  ar  
 44  22  32  1   
 45  23  24  1   
 46  23  25  ar  
 47  24  51  1   
 48  25  26  ar  
 49  25  33  1   
 50  26  27  1   
 51  26  28  ar  
 52  28  34  1   
 53  29  49  1   
 54  29  50  1   
@<TRIPOS>SUBSTRUCTURE
  1 LIG  16 GROUP 4 **** **** 0
@<TRIPOS>PROPERTY_DATA
index	|	ligand052
Name	|	BOG-INS-d6b-1
ChemPlp	|	-103.525
MM-GBSA Nwat=0	|	-40.3861
STDEV0	|	3.9333
MM-GBSA Nwat=30	|	-54.0706
STDEV30	|	4.8444
MM-GBSA Nwat=60	|	-54.1015
STDEV60	|	4.8085
ST.DEV < 10%	|	Y
RMSD LIG < 2	|	Y
DIST < 5	|	Y
DIST < 3.5	|	N

# MOE 2019.01 (io_trps.svl 2018.10)

@<TRIPOS>MOLECULE
ligand094
55 57 1 0 0 
SMALL
NO_CHARGES


@<TRIPOS>ATOM
  1 C1      13.6010    -0.8460    22.2990 C.3   1 LIG   0.0000 
  2 H2      14.4610    -1.2510    22.6120 H     1 LIG   0.0000 
  3 H3      12.8850    -1.5440    22.2970 H     1 LIG   0.0000 
  4 H4      13.7190    -0.4870    21.3730 H     1 LIG   0.0000 
  5 O5      13.2300     0.2100    23.1730 O.3   1 LIG   0.0000 
  6 C6      12.0940     0.9080    22.9450 C.ar  1 LIG   0.0000 
  7 C7      11.1920     0.4350    21.9980 C.ar  1 LIG   0.0000 
  8 H8      11.3900    -0.4070    21.4960 H     1 LIG   0.0000 
  9 C9      10.0150     1.1320    21.7480 C.ar  1 LIG   0.0000 
 10 C10      9.0430     0.5950    20.7090 C.3   1 LIG   0.0000 
 11 H11      8.4500     1.3360    20.3920 H     1 LIG   0.0000 
 12 H12      9.5550     0.2240    19.9350 H     1 LIG   0.0000 
 13 N13      8.2230    -0.4650    21.3080 N.3   1 LIG   0.0000 
 14 C14      7.1560    -0.7770    20.3440 C.3   1 LIG   0.0000 
 15 H15      7.5720    -1.0580    19.4790 H     1 LIG   0.0000 
 16 H16      6.6020     0.0430    20.1970 H     1 LIG   0.0000 
 17 C17      6.2560    -1.8970    20.8450 C.3   1 LIG   0.0000 
 18 H18      5.6580    -1.5380    21.5610 H     1 LIG   0.0000 
 19 H19      5.7010    -2.2330    20.0840 H     1 LIG   0.0000 
 20 N20      7.0420    -3.0150    21.3930 N.am  1 LIG   0.0000 
 21 C21      6.5450    -4.3160    21.2750 C.2   1 LIG   0.0000 
 22 O22      5.4920    -4.5100    20.7340 O.2   1 LIG   0.0000 
 23 C23      7.3380    -5.4860    21.8340 C.3   1 LIG   0.0000 
 24 H24      7.7310    -6.0130    21.0800 H     1 LIG   0.0000 
 25 H25      8.0730    -5.1420    22.4180 H     1 LIG   0.0000 
 26 CL26     6.2610    -6.5320    22.7900 Cl    1 LIG   0.0000 
 27 C27      8.3400    -2.8220    22.0570 C.3   1 LIG   0.0000 
 28 H28      8.8900    -3.6500    21.9450 H     1 LIG   0.0000 
 29 H29      8.1870    -2.6520    23.0310 H     1 LIG   0.0000 
 30 C30      9.0940    -1.6420    21.4610 C.3   1 LIG   0.0000 
 31 H31      9.8560    -1.4050    22.0630 H     1 LIG   0.0000 
 32 H32      9.4470    -1.9030    20.5620 H     1 LIG   0.0000 
 33 C33      9.7480     2.3040    22.4500 C.ar  1 LIG   0.0000 
 34 N34      8.6630     3.1300    22.3620 N.pl3 1 LIG   0.0000 
 35 H35      7.8810     3.0000    21.7520 H     1 LIG   0.0000 
 36 C36      8.8210     4.1600    23.2420 C.2   1 LIG   0.0000 
 37 H37      8.1780     4.9120    23.3880 H     1 LIG   0.0000 
 38 C38     10.0110     3.9850    23.8870 C.2   1 LIG   0.0000 
 39 C39     10.5840     4.9050    24.9530 C.3   1 LIG   0.0000 
 40 H40     10.4070     4.5180    25.8580 H     1 LIG   0.0000 
 41 H41     10.1530     5.8040    24.8850 H     1 LIG   0.0000 
 42 C42     12.0840     5.0460    24.7470 C.3   1 LIG   0.0000 
 43 H43     12.4530     5.6900    25.4160 H     1 LIG   0.0000 
 44 H44     12.5220     4.1540    24.8660 H     1 LIG   0.0000 
 45 N45     12.3470     5.5440    23.3890 N.am  1 LIG   0.0000 
 46 H46     11.5930     5.8780    22.8240 H     1 LIG   0.0000 
 47 C47     13.6260     5.5490    22.8970 C.2   1 LIG   0.0000 
 48 C48     13.8980     6.0640    21.4940 C.3   1 LIG   0.0000 
 49 H49     13.0390     6.3570    21.0740 H     1 LIG   0.0000 
 50 H50     14.5280     6.8390    21.5390 H     1 LIG   0.0000 
 51 H51     14.3060     5.3350    20.9440 H     1 LIG   0.0000 
 52 O52     14.5310     5.1470    23.5750 O.2   1 LIG   0.0000 
 53 C53     10.6150     2.8060    23.3950 C.ar  1 LIG   0.0000 
 54 C54     11.7870     2.0870    23.6250 C.ar  1 LIG   0.0000 
 55 H55     12.4340     2.4300    24.3060 H     1 LIG   0.0000 
@<TRIPOS>BOND
  1   1   2  1   
  2   1   3  1   
  3   1   4  1   
  4   1   5  1   
  5   5   6  1   
  6   6   7  ar  
  7   6  54  ar  
  8   7   8  1   
  9   7   9  ar  
 10   9  10  1   
 11   9  33  ar  
 12  10  11  1   
 13  10  12  1   
 14  10  13  1   
 15  13  14  1   
 16  13  30  1   
 17  14  15  1   
 18  14  16  1   
 19  14  17  1   
 20  17  18  1   
 21  17  19  1   
 22  17  20  1   
 23  20  21  am  
 24  20  27  1   
 25  21  22  2   
 26  21  23  1   
 27  23  24  1   
 28  23  25  1   
 29  23  26  1   
 30  27  28  1   
 31  27  29  1   
 32  27  30  1   
 33  30  31  1   
 34  30  32  1   
 35  33  34  1   
 36  33  53  ar  
 37  34  35  1   
 38  34  36  1   
 39  36  37  1   
 40  36  38  2   
 41  38  39  1   
 42  38  53  1   
 43  39  40  1   
 44  39  41  1   
 45  39  42  1   
 46  42  43  1   
 47  42  44  1   
 48  42  45  1   
 49  45  46  1   
 50  45  47  am  
 51  47  48  1   
 52  47  52  2   
 53  48  49  1   
 54  48  50  1   
 55  48  51  1   
 56  53  54  ar  
 57  54  55  1   
@<TRIPOS>SUBSTRUCTURE
  1 LIG   9 GROUP 4 **** **** 0
@<TRIPOS>PROPERTY_DATA
index	|	ligand094
Name	|	DAR-DIA-fb2-14
ChemPlp	|	-97.5384
MM-GBSA Nwat=0	|	-38.4086
STDEV0	|	2.3957
MM-GBSA Nwat=30	|	-53.401
STDEV30	|	3.7912
MM-GBSA Nwat=60	|	-56.0036
STDEV60	|	3.93
ST.DEV < 10%	|	Y
RMSD LIG < 2	|	Y
DIST < 5	|	Y
DIST < 3.5	|	N

# MOE 2019.01 (io_trps.svl 2018.10)

@<TRIPOS>MOLECULE
ligand206
46 48 1 0 0 
SMALL
USER_CHARGES


@<TRIPOS>ATOM
  1 N1      14.0810     4.9350    23.7950 N.4   1 LIG   1.0000 
  2 C4      12.6350     4.6730    23.8390 C.3   1 LIG   0.0000 
  3 C7      12.3230     3.4160    23.0430 C.3   1 LIG   0.0000 
  4 C8      12.7000     2.1750    23.8350 C.3   1 LIG   0.0000 
  5 C11     12.5550     0.9880    22.8940 C.3   1 LIG   0.0000 
  6 C14     11.1870     0.9560    22.2270 C.2   1 LIG   0.0000 
  7 N15     10.5530    -0.0990    21.6230 N.pl3 1 LIG   0.0000 
  8 C17      9.3620     0.3470    21.1240 C.2   1 LIG   0.0000 
  9 C18      8.3560    -0.4940    20.3550 C.3   1 LIG   0.0000 
 10 C19      7.2450     0.3810    19.7900 C.3   1 LIG   0.0000 
 11 C22      6.2900    -0.5200    19.0180 C.3   1 LIG   0.0000 
 12 C25      5.6520    -1.5880    19.8970 C.3   1 LIG   0.0000 
 13 N28      6.6490    -2.2640    20.7450 N.am  1 LIG   0.0000 
 14 C29      6.4590    -3.6200    21.0360 C.2   1 LIG   0.0000 
 15 O30      5.5010    -4.1980    20.6020 O.2   1 LIG   0.0000 
 16 C31      7.4650    -4.3600    21.9030 C.3   1 LIG   0.0000 
 17 CL34     7.0150    -6.0790    21.9980 Cl    1 LIG   0.0000 
 18 C35      7.8320    -1.5760    21.2890 C.3   1 LIG   0.0000 
 19 C38      9.2120     1.6690    21.4260 C.2   1 LIG   0.0000 
 20 C40     10.3700     2.0440    22.1450 C.2   1 LIG   0.0000 
 21 C41     10.8190     3.3510    22.7900 C.3   1 LIG   0.0000 
 22 H15     10.9030    -1.0340    21.5590 H     1 LIG   0.0000 
 23 H38      8.4380     2.2560    21.1870 H     1 LIG   0.0000 
 24 H11     14.5660     4.2090    24.2810 H     1 LIG   0.0000 
 25 H12     14.3860     4.9610    22.8430 H     1 LIG   0.0000 
 26 H13     14.2740     5.8140    24.2300 H     1 LIG   0.0000 
 27 H41     12.1430     5.4490    23.4440 H     1 LIG   0.0000 
 28 H42     12.3480     4.5460    24.7890 H     1 LIG   0.0000 
 29 H7      12.8170     3.4310    22.1730 H     1 LIG   0.0000 
 30 H81     12.0890     2.0690    24.6200 H     1 LIG   0.0000 
 31 H82     13.6450     2.2460    24.1560 H     1 LIG   0.0000 
 32 H111    13.2580     1.0500    22.1860 H     1 LIG   0.0000 
 33 H112    12.6810     0.1450    23.4160 H     1 LIG   0.0000 
 34 H18      8.8300    -0.9350    19.5930 H     1 LIG   0.0000 
 35 H191     7.6320     1.0700    19.1770 H     1 LIG   0.0000 
 36 H192     6.7560     0.8350    20.5350 H     1 LIG   0.0000 
 37 H221     5.5650     0.0440    18.6240 H     1 LIG   0.0000 
 38 H222     6.7980    -0.9710    18.2840 H     1 LIG   0.0000 
 39 H251     4.9670    -1.1570    20.4840 H     1 LIG   0.0000 
 40 H252     5.2100    -2.2680    19.3120 H     1 LIG   0.0000 
 41 H311     8.3770    -4.2750    21.5010 H     1 LIG   0.0000 
 42 H312     7.4680    -3.9650    22.8220 H     1 LIG   0.0000 
 43 H351     8.5560    -2.2500    21.4370 H     1 LIG   0.0000 
 44 H352     7.5860    -1.1550    22.1620 H     1 LIG   0.0000 
 45 H411    10.3460     3.4520    23.6650 H     1 LIG   0.0000 
 46 H412    10.5660     4.1060    22.1850 H     1 LIG   0.0000 
@<TRIPOS>BOND
  1   1   2  1   
  2   1  24  1   
  3   1  25  1   
  4   1  26  1   
  5   2   3  1   
  6   2  27  1   
  7   2  28  1   
  8   3   4  1   
  9   3  21  1   
 10   3  29  1   
 11   4   5  1   
 12   4  30  1   
 13   4  31  1   
 14   5   6  1   
 15   5  32  1   
 16   5  33  1   
 17   6   7  1   
 18   6  20  2   
 19   7   8  1   
 20   7  22  1   
 21   8   9  1   
 22   8  19  2   
 23   9  10  1   
 24   9  18  1   
 25   9  34  1   
 26  10  11  1   
 27  10  35  1   
 28  10  36  1   
 29  11  12  1   
 30  11  37  1   
 31  11  38  1   
 32  12  13  1   
 33  12  39  1   
 34  12  40  1   
 35  13  14  am  
 36  13  18  1   
 37  14  15  2   
 38  14  16  1   
 39  16  17  1   
 40  16  41  1   
 41  16  42  1   
 42  18  43  1   
 43  18  44  1   
 44  19  20  1   
 45  19  23  1   
 46  20  21  1   
 47  21  45  1   
 48  21  46  1   
@<TRIPOS>SUBSTRUCTURE
  1 LIG   8 GROUP 4 **** **** 0
@<TRIPOS>PROPERTY_DATA
index	|	ligand206
Name	|	HAR-NEW-972-1
ChemPlp	|	-91.458
MM-GBSA Nwat=0	|	-31.1099
STDEV0	|	3.1606
MM-GBSA Nwat=30	|	-52.5411
STDEV30	|	3.5522
MM-GBSA Nwat=60	|	-51.3664
STDEV60	|	3.4862
ST.DEV < 10%	|	Y
RMSD LIG < 2	|	Y
DIST < 5	|	Y
DIST < 3.5	|	N

# MOE 2019.01 (io_trps.svl 2018.10)

@<TRIPOS>MOLECULE
ligand508
52 54 1 0 0 
SMALL
USER_CHARGES


@<TRIPOS>ATOM
  1 N1      14.3040    -1.5190    20.4910 N.1   1 LIG   0.0000 
  2 C2      13.6970    -1.1760    21.3930 C.1   1 LIG   0.0000 
  3 C3      12.8880    -0.7170    22.5950 C.ar  1 LIG   0.0000 
  4 C4      13.2160     0.4780    23.2270 C.ar  1 LIG   0.0000 
  5 C6      12.4700     0.8900    24.3270 C.ar  1 LIG   0.0000 
  6 C8      11.4080     0.1240    24.7970 C.ar  1 LIG   0.0000 
  7 C10     11.0970    -1.0680    24.1500 C.ar  1 LIG   0.0000 
  8 C11      9.9400    -1.9190    24.6490 C.3   1 LIG   0.0000 
  9 C12      8.8830    -1.0210    25.2710 C.3   1 LIG   0.0000 
 10 C15      8.7980    -1.2980    26.7630 C.3   1 LIG   0.0000 
 11 C18      8.3120    -2.7210    26.9880 C.ar  1 LIG   0.0000 
 12 C19      9.2100    -3.7790    26.8870 C.ar  1 LIG   0.0000 
 13 C21      8.7610    -5.0790    27.0930 C.ar  1 LIG   0.0000 
 14 C23      7.4250    -5.3140    27.3980 C.ar  1 LIG   0.0000 
 15 C25      6.5380    -4.2500    27.4960 C.ar  1 LIG   0.0000 
 16 C27      6.9730    -2.9440    27.2920 C.ar  1 LIG   0.0000 
 17 N29      9.3540    -2.6580    23.5220 N.4   1 LIG   1.0000 
 18 C30      8.2360    -3.4500    24.0610 C.3   1 LIG   0.0000 
 19 C33      7.5150    -4.2290    22.9720 C.3   1 LIG   0.0000 
 20 N36      7.2570    -3.3910    21.7900 N.am  1 LIG   0.0000 
 21 C37      6.1010    -3.6340    21.0390 C.2   1 LIG   0.0000 
 22 O38      5.3470    -4.5100    21.3650 O.2   1 LIG   0.0000 
 23 C39      5.8000    -2.7900    19.8120 C.3   1 LIG   0.0000 
 24 CL42     5.8040    -1.0670    20.2620 Cl    1 LIG   0.0000 
 25 C43      8.1580    -2.3030    21.3760 C.3   1 LIG   0.0000 
 26 C46      8.8420    -1.6560    22.5710 C.3   1 LIG   0.0000 
 27 C49     11.8300    -1.4980    23.0490 C.ar  1 LIG   0.0000 
 28 H4      13.9780     1.0340    22.8950 H     1 LIG   0.0000 
 29 H6      12.7000     1.7480    24.7860 H     1 LIG   0.0000 
 30 H8      10.8760     0.4250    25.5880 H     1 LIG   0.0000 
 31 H49     11.6000    -2.3560    22.5900 H     1 LIG   0.0000 
 32 H19     10.1700    -3.6060    26.6690 H     1 LIG   0.0000 
 33 H21      9.4000    -5.8460    27.0210 H     1 LIG   0.0000 
 34 H23      7.1020    -6.2490    27.5460 H     1 LIG   0.0000 
 35 H25      5.5770    -4.4230    27.7160 H     1 LIG   0.0000 
 36 H27      6.3340    -2.1790    27.3640 H     1 LIG   0.0000 
 37 H11     10.2730    -2.5660    25.3350 H     1 LIG   0.0000 
 38 H121     7.9970    -1.2060    24.8470 H     1 LIG   0.0000 
 39 H122     9.1300    -0.0630    25.1230 H     1 LIG   0.0000 
 40 H151     9.7020    -1.1850    27.1750 H     1 LIG   0.0000 
 41 H152     8.1570    -0.6560    27.1850 H     1 LIG   0.0000 
 42 H29     10.0350    -3.2480    23.0880 H     1 LIG   0.0000 
 43 H301     7.5850    -2.8330    24.5020 H     1 LIG   0.0000 
 44 H302     8.5940    -4.0950    24.7360 H     1 LIG   0.0000 
 45 H331     8.0810    -5.0080    22.7000 H     1 LIG   0.0000 
 46 H332     6.6430    -4.5600    23.3320 H     1 LIG   0.0000 
 47 H391     6.4980    -2.9540    19.1150 H     1 LIG   0.0000 
 48 H392     4.9020    -3.0370    19.4490 H     1 LIG   0.0000 
 49 H431     7.6260    -1.6090    20.8920 H     1 LIG   0.0000 
 50 H432     8.8560    -2.6750    20.7650 H     1 LIG   0.0000 
 51 H461     9.6070    -1.1010    22.2440 H     1 LIG   0.0000 
 52 H462     8.1840    -1.0700    23.0430 H     1 LIG   0.0000 
@<TRIPOS>BOND
  1   1   2  3   
  2   2   3  1   
  3   3   4  ar  
  4   3  27  ar  
  5   4   5  ar  
  6   4  28  1   
  7   5   6  ar  
  8   5  29  1   
  9   6   7  ar  
 10   6  30  1   
 11   7   8  1   
 12   7  27  ar  
 13   8   9  1   
 14   8  17  1   
 15   8  37  1   
 16   9  10  1   
 17   9  38  1   
 18   9  39  1   
 19  10  11  1   
 20  10  40  1   
 21  10  41  1   
 22  11  12  ar  
 23  11  16  ar  
 24  12  13  ar  
 25  12  32  1   
 26  13  14  ar  
 27  13  33  1   
 28  14  15  ar  
 29  14  34  1   
 30  15  16  ar  
 31  15  35  1   
 32  16  36  1   
 33  17  18  1   
 34  17  26  1   
 35  17  42  1   
 36  18  19  1   
 37  18  43  1   
 38  18  44  1   
 39  19  20  1   
 40  19  45  1   
 41  19  46  1   
 42  20  21  am  
 43  20  25  1   
 44  21  22  2   
 45  21  23  1   
 46  23  24  1   
 47  23  47  1   
 48  23  48  1   
 49  25  26  1   
 50  25  49  1   
 51  25  50  1   
 52  26  51  1   
 53  26  52  1   
 54  27  31  1   
@<TRIPOS>SUBSTRUCTURE
  1 LIG  17 GROUP 4 **** **** 0
@<TRIPOS>PROPERTY_DATA
index	|	ligand508
Name	|	PAU-WEI-b9b-4
ChemPlp	|	-92.0145
MM-GBSA Nwat=0	|	-32.0863
STDEV0	|	3.2981
MM-GBSA Nwat=30	|	-52.291
STDEV30	|	4.4843
MM-GBSA Nwat=60	|	-52.3486
STDEV60	|	4.3925
ST.DEV < 10%	|	Y
RMSD LIG < 2	|	Y
DIST < 5	|	Y
DIST < 3.5	|	Y

# MOE 2019.01 (io_trps.svl 2018.10)

@<TRIPOS>MOLECULE
ligand050
49 52 1 0 0 
SMALL
NO_CHARGES


@<TRIPOS>ATOM
  1 O1       5.5010    -3.7720    21.5900 O.2   1 LIG   0.0000 
  2 C2       6.3690    -2.9440    21.5550 C.2   1 LIG   0.0000 
  3 C3       6.1750    -1.6740    20.7420 C.3   1 LIG   0.0000 
  4 CL6      5.5010    -2.0870    19.1480 Cl    1 LIG   0.0000 
  5 N7       7.5600    -3.1480    22.2620 N.am  1 LIG   0.0000 
  6 C8       7.7220    -4.3830    23.0440 C.3   1 LIG   0.0000 
  7 C11      8.5760    -4.1310    24.2760 C.3   1 LIG   0.0000 
  8 O14      9.7400    -3.3810    23.9560 O.3   1 LIG   0.0000 
  9 C15      9.3810    -2.0750    23.5240 C.3   1 LIG   0.0000 
 10 C16     10.6170    -1.2140    23.3210 C.ar  1 LIG   0.0000 
 11 C17     11.6740    -1.7320    22.5820 C.ar  1 LIG   0.0000 
 12 C19     12.8080    -0.9550    22.3850 C.ar  1 LIG   0.0000 
 13 F20     13.8420    -1.4320    21.6980 F     1 LIG   0.0000 
 14 C21     12.8840     0.3310    22.9090 C.ar  1 LIG   0.0000 
 15 C23     11.8200     0.8460    23.6460 C.ar  1 LIG   0.0000 
 16 C24     10.7090     0.0680    23.8590 C.ar  1 LIG   0.0000 
 17 C25      9.7900     0.9010    24.7260 C.3   1 LIG   0.0000 
 18 O28     10.1620     2.2330    24.4230 O.3   1 LIG   0.0000 
 19 C29     11.5680     2.1700    24.3320 C.3   1 LIG   0.0000 
 20 C30     12.0790     3.3310    23.4940 C.3   1 LIG   0.0000 
 21 C33     11.5650     4.6380    24.0730 C.ar  1 LIG   0.0000 
 22 C34     12.4000     5.4000    24.8820 C.ar  1 LIG   0.0000 
 23 C36     11.9170     6.5950    25.4060 C.ar  1 LIG   0.0000 
 24 O37     12.7150     7.3460    26.1940 O.3   1 LIG   0.0000 
 25 C39     10.6240     7.0290    25.1330 C.ar  1 LIG   0.0000 
 26 C41      9.8100     6.2480    24.3200 C.ar  1 LIG   0.0000 
 27 F42      8.5710     6.6540    24.0520 F     1 LIG   0.0000 
 28 C43     10.2680     5.0500    23.7840 C.ar  1 LIG   0.0000 
 29 C45      8.6160    -2.1260    22.2110 C.3   1 LIG   0.0000 
 30 H17     11.6180    -2.6540    22.1980 H     1 LIG   0.0000 
 31 H21     13.7020     0.8860    22.7570 H     1 LIG   0.0000 
 32 H34     13.3310     5.0950    25.0840 H     1 LIG   0.0000 
 33 H39     10.2860     7.8890    25.5150 H     1 LIG   0.0000 
 34 H43      9.6760     4.4940    23.2000 H     1 LIG   0.0000 
 35 H31      5.5450    -1.0640    21.2230 H     1 LIG   0.0000 
 36 H32      7.0560    -1.2170    20.6230 H     1 LIG   0.0000 
 37 H81      8.1640    -5.0760    22.4740 H     1 LIG   0.0000 
 38 H82      6.8220    -4.7120    23.3290 H     1 LIG   0.0000 
 39 H111     8.0360    -3.6230    24.9480 H     1 LIG   0.0000 
 40 H112     8.8520    -5.0100    24.6660 H     1 LIG   0.0000 
 41 H15      8.8020    -1.6510    24.2210 H     1 LIG   0.0000 
 42 H251     8.8320     0.7360    24.4920 H     1 LIG   0.0000 
 43 H252     9.9350     0.7010    25.6950 H     1 LIG   0.0000 
 44 H29     11.9830     2.1820    25.2420 H     1 LIG   0.0000 
 45 H301    13.0790     3.3330    23.5020 H     1 LIG   0.0000 
 46 H302    11.7530     3.2320    22.5540 H     1 LIG   0.0000 
 47 H451     8.2000    -1.2330    22.0400 H     1 LIG   0.0000 
 48 H452     9.2500    -2.3460    21.4700 H     1 LIG   0.0000 
 49 H37     13.6930     7.4120    25.9990 H     1 LIG   0.0000 
@<TRIPOS>BOND
  1   1   2  2   
  2   2   3  1   
  3   2   5  am  
  4   3   4  1   
  5   3  35  1   
  6   3  36  1   
  7   5   6  1   
  8   5  29  1   
  9   6   7  1   
 10   6  37  1   
 11   6  38  1   
 12   7   8  1   
 13   7  39  1   
 14   7  40  1   
 15   8   9  1   
 16   9  10  1   
 17   9  29  1   
 18   9  41  1   
 19  10  11  ar  
 20  10  16  ar  
 21  11  12  ar  
 22  11  30  1   
 23  12  13  1   
 24  12  14  ar  
 25  14  15  ar  
 26  14  31  1   
 27  15  16  ar  
 28  15  19  1   
 29  16  17  1   
 30  17  18  1   
 31  17  42  1   
 32  17  43  1   
 33  18  19  1   
 34  19  20  1   
 35  19  44  1   
 36  20  21  1   
 37  20  45  1   
 38  20  46  1   
 39  21  22  ar  
 40  21  28  ar  
 41  22  23  ar  
 42  22  32  1   
 43  23  24  1   
 44  23  25  ar  
 45  24  49  1   
 46  25  26  ar  
 47  25  33  1   
 48  26  27  1   
 49  26  28  ar  
 50  28  34  1   
 51  29  47  1   
 52  29  48  1   
@<TRIPOS>SUBSTRUCTURE
  1 LIG  16 GROUP 4 **** **** 0
@<TRIPOS>PROPERTY_DATA
index	|	ligand050
Name	|	BOG-INS-8eb-1
ChemPlp	|	-102.823
MM-GBSA Nwat=0	|	-35.4866
STDEV0	|	4.0989
MM-GBSA Nwat=30	|	-50.0318
STDEV30	|	4.8018
MM-GBSA Nwat=60	|	-51.5154
STDEV60	|	4.5902
ST.DEV < 10%	|	Y
RMSD LIG < 2	|	Y
DIST < 5	|	Y
DIST < 3.5	|	N

# MOE 2019.01 (io_trps.svl 2018.10)

@<TRIPOS>MOLECULE
ligand653
54 57 1 0 0 
SMALL
NO_CHARGES


@<TRIPOS>ATOM
  1 C1      10.2950     3.7500    24.9950 C.3   1 LIG   0.0000 
  2 N5      11.1140     4.9530    24.7900 N.pl3 1 LIG   0.0000 
  3 C6      11.0660     6.0210    25.6360 C.2   1 LIG   0.0000 
  4 C8      11.9430     6.9460    25.1560 C.2   1 LIG   0.0000 
  5 C10     12.5400     6.4240    23.9830 C.ar  1 LIG   0.0000 
  6 C11     13.4870     6.9190    23.0920 C.ar  1 LIG   0.0000 
  7 C13     13.9000     6.1710    21.9950 C.ar  1 LIG   0.0000 
  8 C15     13.3650     4.9070    21.7750 C.ar  1 LIG   0.0000 
  9 C17     12.4180     4.4200    22.6700 C.ar  1 LIG   0.0000 
 10 C18     11.8740     3.0310    22.3690 C.3   1 LIG   0.0000 
 11 C21     12.6370     2.0000    23.1860 C.3   1 LIG   0.0000 
 12 C24     12.1080     0.6110    22.8680 C.ar  1 LIG   0.0000 
 13 C25     12.9790    -0.4720    22.8130 C.ar  1 LIG   0.0000 
 14 C27     12.4610    -1.7300    22.5180 C.ar  1 LIG   0.0000 
 15 N29     11.1490    -1.8940    22.2950 N.ar  1 LIG   0.0000 
 16 C30     10.2890    -0.8650    22.3440 C.ar  1 LIG   0.0000 
 17 C31      8.8030    -1.0530    22.0880 C.3   1 LIG   0.0000 
 18 C32      8.2970    -0.0280    21.0830 C.3   1 LIG   0.0000 
 19 C35      6.7980    -0.2470    20.9310 C.3   1 LIG   0.0000 
 20 C38      6.4610    -1.6340    20.3990 C.3   1 LIG   0.0000 
 21 N41      7.2170    -2.6890    21.0950 N.am  1 LIG   0.0000 
 22 C42      6.6090    -3.9380    21.2680 C.2   1 LIG   0.0000 
 23 O43      5.5000    -4.1290    20.8500 O.2   1 LIG   0.0000 
 24 C44      7.3540    -5.0530    21.9830 C.3   1 LIG   0.0000 
 25 CL47     6.1850    -6.2350    22.6190 Cl    1 LIG   0.0000 
 26 C48      8.5780    -2.4830    21.6170 C.3   1 LIG   0.0000 
 27 C51     10.7510     0.4160    22.6330 C.ar  1 LIG   0.0000 
 28 C53     12.0060     5.1760    23.7710 C.ar  1 LIG   0.0000 
 29 H6      10.4960     6.1080    26.4530 H     1 LIG   0.0000 
 30 H8      12.1330     7.8400    25.5620 H     1 LIG   0.0000 
 31 H11     13.8770     7.8280    23.2440 H     1 LIG   0.0000 
 32 H13     14.5820     6.5420    21.3650 H     1 LIG   0.0000 
 33 H15     13.6540     4.3590    20.9900 H     1 LIG   0.0000 
 34 H25     13.9580    -0.3500    22.9810 H     1 LIG   0.0000 
 35 H27     13.0730    -2.5190    22.4730 H     1 LIG   0.0000 
 36 H51     10.1150     1.1870    22.6700 H     1 LIG   0.0000 
 37 H11      9.7360     3.8630    25.8160 H     1 LIG   0.0000 
 38 H12      9.7000     3.6130    24.2030 H     1 LIG   0.0000 
 39 H13     10.8920     2.9550    25.1050 H     1 LIG   0.0000 
 40 H181    11.9860     2.8330    21.3950 H     1 LIG   0.0000 
 41 H182    10.9040     2.9940    22.6080 H     1 LIG   0.0000 
 42 H211    13.6090     2.0470    22.9570 H     1 LIG   0.0000 
 43 H212    12.5140     2.1890    24.1600 H     1 LIG   0.0000 
 44 H31      8.3130    -0.9220    22.9500 H     1 LIG   0.0000 
 45 H321     8.7530    -0.1580    20.2020 H     1 LIG   0.0000 
 46 H322     8.4760     0.8970    21.4170 H     1 LIG   0.0000 
 47 H351     6.3650    -0.1330    21.8260 H     1 LIG   0.0000 
 48 H352     6.4360     0.4360    20.2970 H     1 LIG   0.0000 
 49 H381     5.4830    -1.8000    20.5260 H     1 LIG   0.0000 
 50 H382     6.6810    -1.6680    19.4240 H     1 LIG   0.0000 
 51 H441     7.9720    -5.5080    21.3410 H     1 LIG   0.0000 
 52 H442     7.8840    -4.6690    22.7390 H     1 LIG   0.0000 
 53 H481     9.2360    -2.6900    20.8920 H     1 LIG   0.0000 
 54 H482     8.7250    -3.1030    22.3870 H     1 LIG   0.0000 
@<TRIPOS>BOND
  1   1   2  1   
  2   1  37  1   
  3   1  38  1   
  4   1  39  1   
  5   2   3  1   
  6   2  28  1   
  7   3   4  2   
  8   3  29  1   
  9   4   5  1   
 10   4  30  1   
 11   5   6  ar  
 12   5  28  ar  
 13   6   7  ar  
 14   6  31  1   
 15   7   8  ar  
 16   7  32  1   
 17   8   9  ar  
 18   8  33  1   
 19   9  10  1   
 20   9  28  ar  
 21  10  11  1   
 22  10  40  1   
 23  10  41  1   
 24  11  12  1   
 25  11  42  1   
 26  11  43  1   
 27  12  13  ar  
 28  12  27  ar  
 29  13  14  ar  
 30  13  34  1   
 31  14  15  ar  
 32  14  35  1   
 33  15  16  ar  
 34  16  17  1   
 35  16  27  ar  
 36  17  18  1   
 37  17  26  1   
 38  17  44  1   
 39  18  19  1   
 40  18  45  1   
 41  18  46  1   
 42  19  20  1   
 43  19  47  1   
 44  19  48  1   
 45  20  21  1   
 46  20  49  1   
 47  20  50  1   
 48  21  22  am  
 49  21  26  1   
 50  22  23  2   
 51  22  24  1   
 52  24  25  1   
 53  24  51  1   
 54  24  52  1   
 55  26  53  1   
 56  26  54  1   
 57  27  36  1   
@<TRIPOS>SUBSTRUCTURE
  1 LIG  27 GROUP 4 **** **** 0
@<TRIPOS>PROPERTY_DATA
index	|	ligand653
Name	|	WAR-XCH-bdd-20
ChemPlp	|	-104.861
MM-GBSA Nwat=0	|	-36.5881
STDEV0	|	3.0435
MM-GBSA Nwat=30	|	-49.9774
STDEV30	|	4.6514
MM-GBSA Nwat=60	|	-54.0703
STDEV60	|	4.7596
ST.DEV < 10%	|	Y
RMSD LIG < 2	|	Y
DIST < 5	|	Y
DIST < 3.5	|	N

# MOE 2019.01 (io_trps.svl 2018.10)

@<TRIPOS>MOLECULE
ligand428
43 45 1 0 0 
SMALL
NO_CHARGES


@<TRIPOS>ATOM
  1 N1       9.9360     3.3500    22.2960 N.am  1 LIG   0.0000 
  2 C4       9.3490     2.1250    22.1170 C.2   1 LIG   0.0000 
  3 O5       8.7760     1.8780    21.0920 O.2   1 LIG   0.0000 
  4 C6       9.4240     1.0780    23.2170 C.3   1 LIG   0.0000 
  5 C9      10.6380     0.1910    22.9910 C.ar  1 LIG   0.0000 
  6 C10     11.9130     0.7480    22.9740 C.ar  1 LIG   0.0000 
  7 C12     13.0240    -0.0630    22.7670 C.ar  1 LIG   0.0000 
  8 C14     12.8600    -1.4320    22.5780 C.ar  1 LIG   0.0000 
  9 C16     11.5860    -1.9890    22.5950 C.ar  1 LIG   0.0000 
 10 C18     10.4740    -1.1780    22.8010 C.ar  1 LIG   0.0000 
 11 C19      9.0970    -1.8230    22.8130 C.3   1 LIG   0.0000 
 12 C20      8.8340    -2.2980    21.3960 C.3   1 LIG   0.0000 
 13 N23      7.5290    -2.9660    21.4220 N.am  1 LIG   0.0000 
 14 C24      6.3480    -2.3790    20.9580 C.2   1 LIG   0.0000 
 15 O25      5.3140    -2.9840    21.0160 O.2   1 LIG   0.0000 
 16 C26      6.3750    -0.9730    20.3800 C.3   1 LIG   0.0000 
 17 CL29     5.8000    -1.0130    18.6960 Cl    1 LIG   0.0000 
 18 C30      7.5990    -4.3160    21.9960 C.3   1 LIG   0.0000 
 19 C33      8.3760    -4.2120    23.2990 C.ar  1 LIG   0.0000 
 20 C34      8.3820    -5.3320    24.1160 C.ar  1 LIG   0.0000 
 21 C36      9.0750    -5.3340    25.3220 C.ar  1 LIG   0.0000 
 22 C38      9.7730    -4.1970    25.7150 C.ar  1 LIG   0.0000 
 23 C40      9.7680    -3.0720    24.8960 C.ar  1 LIG   0.0000 
 24 C42      9.0780    -3.0660    23.6900 C.ar  1 LIG   0.0000 
 25 H10     12.0300     1.7320    23.1100 H     1 LIG   0.0000 
 26 H12     13.9400     0.3380    22.7540 H     1 LIG   0.0000 
 27 H14     13.6590    -2.0150    22.4310 H     1 LIG   0.0000 
 28 H16     11.4680    -2.9720    22.4590 H     1 LIG   0.0000 
 29 H34      7.8800    -6.1500    23.8350 H     1 LIG   0.0000 
 30 H36      9.0720    -6.1480    25.9020 H     1 LIG   0.0000 
 31 H38     10.2750    -4.1880    26.5800 H     1 LIG   0.0000 
 32 H40     10.2690    -2.2550    25.1800 H     1 LIG   0.0000 
 33 H61      9.5030     1.5320    24.1040 H     1 LIG   0.0000 
 34 H62      8.5950     0.5190    23.2010 H     1 LIG   0.0000 
 35 H19      8.3990    -1.1690    23.1060 H     1 LIG   0.0000 
 36 H201     8.8120    -1.5200    20.7690 H     1 LIG   0.0000 
 37 H202     9.5460    -2.9390    21.1090 H     1 LIG   0.0000 
 38 H261     5.7800    -0.3790    20.9210 H     1 LIG   0.0000 
 39 H262     7.3100    -0.6200    20.4050 H     1 LIG   0.0000 
 40 H301     8.0710    -4.9320    21.3640 H     1 LIG   0.0000 
 41 H302     6.6780    -4.6620    22.1730 H     1 LIG   0.0000 
 42 H11     10.4140     3.5550    23.1510 H     1 LIG   0.0000 
 43 H12      9.8870     4.0380    21.5730 H     1 LIG   0.0000 
@<TRIPOS>BOND
  1   1   2  am  
  2   1  42  1   
  3   1  43  1   
  4   2   3  2   
  5   2   4  1   
  6   4   5  1   
  7   4  33  1   
  8   4  34  1   
  9   5   6  ar  
 10   5  10  ar  
 11   6   7  ar  
 12   6  25  1   
 13   7   8  ar  
 14   7  26  1   
 15   8   9  ar  
 16   8  27  1   
 17   9  10  ar  
 18   9  28  1   
 19  10  11  1   
 20  11  12  1   
 21  11  24  1   
 22  11  35  1   
 23  12  13  1   
 24  12  36  1   
 25  12  37  1   
 26  13  14  am  
 27  13  18  1   
 28  14  15  2   
 29  14  16  1   
 30  16  17  1   
 31  16  38  1   
 32  16  39  1   
 33  18  19  1   
 34  18  40  1   
 35  18  41  1   
 36  19  20  ar  
 37  19  24  ar  
 38  20  21  ar  
 39  20  29  1   
 40  21  22  ar  
 41  21  30  1   
 42  22  23  ar  
 43  22  31  1   
 44  23  24  ar  
 45  23  32  1   
@<TRIPOS>SUBSTRUCTURE
  1 LIG  11 GROUP 4 **** **** 0
@<TRIPOS>PROPERTY_DATA
index	|	ligand428
Name	|	MIH-UNI-e57-9
ChemPlp	|	-92.2285
MM-GBSA Nwat=0	|	-34.8139
STDEV0	|	2.8053
MM-GBSA Nwat=30	|	-49.5531
STDEV30	|	4.2447
MM-GBSA Nwat=60	|	-48.4763
STDEV60	|	4.2868
ST.DEV < 10%	|	Y
RMSD LIG < 2	|	Y
DIST < 5	|	Y
DIST < 3.5	|	N

# MOE 2019.01 (io_trps.svl 2018.10)

@<TRIPOS>MOLECULE
ligand135
57 61 1 0 0 
SMALL
NO_CHARGES


@<TRIPOS>ATOM
  1 O1      11.8040     1.6160    23.0840 O.2   1 LIG   0.0000 
  2 C2      12.3940     0.5590    22.9340 C.2   1 LIG   0.0000 
  3 C3      13.8960     0.3670    22.8930 C.3   1 LIG   0.0000 
  4 C6      14.0250    -0.9140    22.0950 C.3   1 LIG   0.0000 
  5 C9      12.8440    -1.7140    22.6000 C.3   1 LIG   0.0000 
  6 N12     11.8100    -0.6910    22.7590 N.am  1 LIG   0.0000 
  7 C13     10.4340    -0.9360    22.7330 C.ar  1 LIG   0.0000 
  8 C14      9.5620     0.1000    22.4130 C.ar  1 LIG   0.0000 
  9 C16      8.1960    -0.1540    22.3900 C.ar  1 LIG   0.0000 
 10 C18      7.6960    -1.4200    22.6800 C.ar  1 LIG   0.0000 
 11 C20      8.5860    -2.4400    22.9980 C.ar  1 LIG   0.0000 
 12 C21      8.0600    -3.8300    23.3180 C.3   1 LIG   0.0000 
 13 C22      8.3740    -4.2410    24.7540 C.ar  1 LIG   0.0000 
 14 C23      9.6710    -4.6000    25.1170 C.ar  1 LIG   0.0000 
 15 C25      9.9980    -4.9710    26.4180 C.ar  1 LIG   0.0000 
 16 C27      9.0100    -4.9910    27.3960 C.ar  1 LIG   0.0000 
 17 C29      7.7070    -4.6410    27.0560 C.ar  1 LIG   0.0000 
 18 C31      7.3970    -4.2760    25.7500 C.ar  1 LIG   0.0000 
 19 C32      5.9500    -3.9080    25.4400 C.3   1 LIG   0.0000 
 20 C33      5.1430    -5.1930    25.3540 C.ar  1 LIG   0.0000 
 21 C34      4.4620    -5.6550    26.4750 C.ar  1 LIG   0.0000 
 22 C36      3.7250    -6.8330    26.3920 C.ar  1 LIG   0.0000 
 23 C38      3.6740    -7.5380    25.1950 C.ar  1 LIG   0.0000 
 24 C40      4.3590    -7.0670    24.0810 C.ar  1 LIG   0.0000 
 25 C42      5.0990    -5.8910    24.1510 C.ar  1 LIG   0.0000 
 26 C44      5.7470    -3.2200    24.0880 C.3   1 LIG   0.0000 
 27 N47      6.6220    -3.7650    23.0300 N.am  1 LIG   0.0000 
 28 C48      6.0840    -4.1660    21.8020 C.2   1 LIG   0.0000 
 29 O49      4.9000    -4.0950    21.6130 O.2   1 LIG   0.0000 
 30 C50      6.9970    -4.6920    20.7060 C.3   1 LIG   0.0000 
 31 CL53     6.3290    -6.2080    20.0540 Cl    1 LIG   0.0000 
 32 C54      9.9580    -2.2090    23.0270 C.ar  1 LIG   0.0000 
 33 H14      9.9130     1.0130    22.2030 H     1 LIG   0.0000 
 34 H16      7.5620     0.5840    22.1610 H     1 LIG   0.0000 
 35 H18      6.7110    -1.5940    22.6610 H     1 LIG   0.0000 
 36 H54     10.5920    -2.9470    23.2560 H     1 LIG   0.0000 
 37 H23     10.3890    -4.5910    24.4210 H     1 LIG   0.0000 
 38 H25     10.9380    -5.2220    26.6480 H     1 LIG   0.0000 
 39 H27      9.2340    -5.2550    28.3340 H     1 LIG   0.0000 
 40 H29      6.9910    -4.6510    27.7530 H     1 LIG   0.0000 
 41 H34      4.5000    -5.1450    27.3340 H     1 LIG   0.0000 
 42 H36      3.2330    -7.1720    27.1940 H     1 LIG   0.0000 
 43 H38      3.1440    -8.3840    25.1350 H     1 LIG   0.0000 
 44 H40      4.3190    -7.5780    23.2220 H     1 LIG   0.0000 
 45 H42      5.5920    -5.5530    23.3500 H     1 LIG   0.0000 
 46 H31     14.2750     0.2630    23.8130 H     1 LIG   0.0000 
 47 H32     14.3480     1.1300    22.4310 H     1 LIG   0.0000 
 48 H61     13.9540    -0.7400    21.1130 H     1 LIG   0.0000 
 49 H62     14.8900    -1.3790    22.2900 H     1 LIG   0.0000 
 50 H91     12.5670    -2.4080    21.9340 H     1 LIG   0.0000 
 51 H92     13.0530    -2.1550    23.4730 H     1 LIG   0.0000 
 52 H21      8.4840    -4.4860    22.6940 H     1 LIG   0.0000 
 53 H32      5.5860    -3.3300    26.1700 H     1 LIG   0.0000 
 54 H441     4.7940    -3.3400    23.8090 H     1 LIG   0.0000 
 55 H442     5.9430    -2.2450    24.1940 H     1 LIG   0.0000 
 56 H501     7.0630    -4.0150    19.9740 H     1 LIG   0.0000 
 57 H502     7.9060    -4.8640    21.0850 H     1 LIG   0.0000 
@<TRIPOS>BOND
  1   1   2  2   
  2   2   3  1   
  3   2   6  am  
  4   3   4  1   
  5   3  46  1   
  6   3  47  1   
  7   4   5  1   
  8   4  48  1   
  9   4  49  1   
 10   5   6  1   
 11   5  50  1   
 12   5  51  1   
 13   6   7  1   
 14   7   8  ar  
 15   7  32  ar  
 16   8   9  ar  
 17   8  33  1   
 18   9  10  ar  
 19   9  34  1   
 20  10  11  ar  
 21  10  35  1   
 22  11  12  1   
 23  11  32  ar  
 24  12  13  1   
 25  12  27  1   
 26  12  52  1   
 27  13  14  ar  
 28  13  18  ar  
 29  14  15  ar  
 30  14  37  1   
 31  15  16  ar  
 32  15  38  1   
 33  16  17  ar  
 34  16  39  1   
 35  17  18  ar  
 36  17  40  1   
 37  18  19  1   
 38  19  20  1   
 39  19  26  1   
 40  19  53  1   
 41  20  21  ar  
 42  20  25  ar  
 43  21  22  ar  
 44  21  41  1   
 45  22  23  ar  
 46  22  42  1   
 47  23  24  ar  
 48  23  43  1   
 49  24  25  ar  
 50  24  44  1   
 51  25  45  1   
 52  26  27  1   
 53  26  54  1   
 54  26  55  1   
 55  27  28  am  
 56  28  29  2   
 57  28  30  1   
 58  30  31  1   
 59  30  56  1   
 60  30  57  1   
 61  32  36  1   
@<TRIPOS>SUBSTRUCTURE
  1 LIG  12 GROUP 4 **** **** 0
@<TRIPOS>PROPERTY_DATA
index	|	ligand135
Name	|	DAV-CRI-8c8-1
ChemPlp	|	-91.3419
MM-GBSA Nwat=0	|	-31.0423
STDEV0	|	2.6911
MM-GBSA Nwat=30	|	-49.1962
STDEV30	|	4.4713
MM-GBSA Nwat=60	|	-52.1685
STDEV60	|	4.2782
ST.DEV < 10%	|	Y
RMSD LIG < 2	|	Y
DIST < 5	|	Y
DIST < 3.5	|	N

# MOE 2019.01 (io_trps.svl 2018.10)

@<TRIPOS>MOLECULE
ligand574
45 47 1 0 0 
SMALL
NO_CHARGES


@<TRIPOS>ATOM
  1 O1       5.5000    -3.9430    20.1180 O.2   1 LIG   0.0000 
  2 C2       6.4020    -3.3720    20.6650 C.2   1 LIG   0.0000 
  3 C3       7.3110    -4.1260    21.6220 C.3   1 LIG   0.0000 
  4 CL6      6.8640    -5.8500    21.6290 Cl    1 LIG   0.0000 
  5 N7       6.6180    -2.0100    20.4220 N.am  1 LIG   0.0000 
  6 C8       5.7190    -1.3150    19.4860 C.3   1 LIG   0.0000 
  7 C11      6.4400    -0.2180    18.7150 C.3   1 LIG   0.0000 
  8 C14      7.2870     0.6670    19.6200 C.3   1 LIG   0.0000 
  9 C17      8.3440    -0.2290    20.2500 C.3   1 LIG   0.0000 
 10 N18      9.2480     0.5590    21.1010 N.pl3 1 LIG   0.0000 
 11 C19     10.2810     0.0630    21.8310 C.2   1 LIG   0.0000 
 12 C21     10.8170     1.1510    22.4460 C.2   1 LIG   0.0000 
 13 C22     12.0070     1.1460    23.3900 C.3   1 LIG   0.0000 
 14 O25     12.7470     2.3470    23.2260 O.3   1 LIG   0.0000 
 15 C26     11.9720     3.4460    23.6830 C.3   1 LIG   0.0000 
 16 C29     12.6550     4.7460    23.2890 C.ar  1 LIG   0.0000 
 17 C30     12.6530     5.8200    24.1720 C.ar  1 LIG   0.0000 
 18 C32     13.2780     7.0080    23.8070 C.ar  1 LIG   0.0000 
 19 C34     13.9000     7.1150    22.5680 C.ar  1 LIG   0.0000 
 20 C36     13.8960     6.0340    21.6940 C.ar  1 LIG   0.0000 
 21 C38     13.2740     4.8420    22.0470 C.ar  1 LIG   0.0000 
 22 N40     10.0980     2.2460    22.0690 N.2   1 LIG   0.0000 
 23 N41      9.1890     1.8550    21.2820 N.2   1 LIG   0.0000 
 24 C42      7.7320    -1.3310    21.1050 C.3   1 LIG   0.0000 
 25 H19     10.5800    -0.8880    21.9010 H     1 LIG   0.0000 
 26 H30     12.2060     5.7400    25.0630 H     1 LIG   0.0000 
 27 H32     13.2800     7.7860    24.4360 H     1 LIG   0.0000 
 28 H34     14.3500     7.9680    22.3050 H     1 LIG   0.0000 
 29 H36     14.3440     6.1160    20.8030 H     1 LIG   0.0000 
 30 H38     13.2720     4.0650    21.4170 H     1 LIG   0.0000 
 31 H31      8.2610    -4.0300    21.3250 H     1 LIG   0.0000 
 32 H32      7.2100    -3.7520    22.5430 H     1 LIG   0.0000 
 33 H81      4.9670    -0.9060    20.0030 H     1 LIG   0.0000 
 34 H82      5.3530    -1.9800    18.8350 H     1 LIG   0.0000 
 35 H111     5.7590     0.3520    18.2560 H     1 LIG   0.0000 
 36 H112     7.0340    -0.6420    18.0330 H     1 LIG   0.0000 
 37 H141     7.7240     1.3880    19.0830 H     1 LIG   0.0000 
 38 H142     6.7170     1.0780    20.3300 H     1 LIG   0.0000 
 39 H17      8.8810    -0.6520    19.5210 H     1 LIG   0.0000 
 40 H221    11.6840     1.0800    24.3340 H     1 LIG   0.0000 
 41 H222    12.5930     0.3620    23.1830 H     1 LIG   0.0000 
 42 H261    11.8870     3.4030    24.6790 H     1 LIG   0.0000 
 43 H262    11.0630     3.4080    23.2690 H     1 LIG   0.0000 
 44 H421     8.4400    -2.0050    21.3160 H     1 LIG   0.0000 
 45 H422     7.3910    -0.9280    21.9540 H     1 LIG   0.0000 
@<TRIPOS>BOND
  1   1   2  2   
  2   2   3  1   
  3   2   5  am  
  4   3   4  1   
  5   3  31  1   
  6   3  32  1   
  7   5   6  1   
  8   5  24  1   
  9   6   7  1   
 10   6  33  1   
 11   6  34  1   
 12   7   8  1   
 13   7  35  1   
 14   7  36  1   
 15   8   9  1   
 16   8  37  1   
 17   8  38  1   
 18   9  10  1   
 19   9  24  1   
 20   9  39  1   
 21  10  11  1   
 22  10  23  1   
 23  11  12  2   
 24  11  25  1   
 25  12  13  1   
 26  12  22  1   
 27  13  14  1   
 28  13  40  1   
 29  13  41  1   
 30  14  15  1   
 31  15  16  1   
 32  15  42  1   
 33  15  43  1   
 34  16  17  ar  
 35  16  21  ar  
 36  17  18  ar  
 37  17  26  1   
 38  18  19  ar  
 39  18  27  1   
 40  19  20  ar  
 41  19  28  1   
 42  20  21  ar  
 43  20  29  1   
 44  21  30  1   
 45  22  23  2   
 46  24  44  1   
 47  24  45  1   
@<TRIPOS>SUBSTRUCTURE
  1 LIG  10 GROUP 4 **** **** 0
@<TRIPOS>PROPERTY_DATA
index	|	ligand574
Name	|	STE-KU -2e0-6
ChemPlp	|	-92.6026
MM-GBSA Nwat=0	|	-28.1072
STDEV0	|	3.8441
MM-GBSA Nwat=30	|	-47.9491
STDEV30	|	4.2846
MM-GBSA Nwat=60	|	-49.5262
STDEV60	|	4.4266
ST.DEV < 10%	|	Y
RMSD LIG < 2	|	Y
DIST < 5	|	Y
DIST < 3.5	|	N

# MOE 2019.01 (io_trps.svl 2018.10)

@<TRIPOS>MOLECULE
ligand048
56 61 1 0 0 
SMALL
USER_CHARGES


@<TRIPOS>ATOM
  1 O1       5.5130    -3.4480    20.0750 O.2   1 LIG   0.0000 
  2 C2       6.3350    -3.2240    20.9200 C.2   1 LIG   0.0000 
  3 C3       6.6390    -4.2700    21.9800 C.3   1 LIG   0.0000 
  4 H4       7.6200    -4.2730    22.1750 H     1 LIG   0.0000 
  5 H5       6.1340    -4.0540    22.8160 H     1 LIG   0.0000 
  6 CL6      6.1460    -5.8750    21.3890 Cl    1 LIG   0.0000 
  7 N7       7.0140    -2.0010    20.9290 N.am  1 LIG   0.0000 
  8 C8       7.9990    -1.8000    22.0090 C.3   1 LIG   0.0000 
  9 H9       8.9100    -2.0250    21.6630 H     1 LIG   0.0000 
 10 H10      7.7730    -2.4070    22.7710 H     1 LIG   0.0000 
 11 C11      8.0030    -0.3640    22.5060 C.3   1 LIG   0.0000 
 12 H12      7.1870    -0.2120    23.0640 H     1 LIG   0.0000 
 13 H13      8.8200    -0.2150    23.0630 H     1 LIG   0.0000 
 14 N14      8.0040     0.5940    21.3910 N.3   1 LIG   0.0000 
 15 C15      7.9430     1.9570    21.9380 C.3   1 LIG   0.0000 
 16 C16      9.1310     2.4910    22.7280 C.2   1 LIG   0.0000 
 17 C17      9.1270     3.6480    23.4430 C.2   1 LIG   0.0000 
 18 H18      8.3680     4.2910    23.5490 H     1 LIG   0.0000 
 19 C19     10.4180     3.7490    24.0040 C.3   1 LIG   0.0000 
 20 C20     10.9060     4.8800    24.8950 C.1   1 LIG   0.0000 
 21 C21     11.2880     5.7650    25.5920 C.1   1 LIG   0.0000 
 22 C22     11.7770     6.8960    26.4830 C.ar  1 LIG   0.0000 
 23 C23     11.3820     6.9510    27.8160 C.ar  1 LIG   0.0000 
 24 H24     10.7780     6.2460    28.1860 H     1 LIG   0.0000 
 25 C25     11.8260     7.9840    28.6350 C.ar  1 LIG   0.0000 
 26 H26     11.5440     8.0260    29.5940 H     1 LIG   0.0000 
 27 C27     12.6660     8.9580    28.1050 C.ar  1 LIG   0.0000 
 28 F28     13.0920     9.9480    28.8850 F     1 LIG   0.0000 
 29 C29     13.0680     8.9140    26.7740 C.ar  1 LIG   0.0000 
 30 H30     13.6730     9.6190    26.4040 H     1 LIG   0.0000 
 31 C31     12.6180     7.8760    25.9650 C.ar  1 LIG   0.0000 
 32 O32     13.0000     7.8220    24.6710 O.3   1 LIG   0.0000 
 33 H33     13.9600     7.6630    24.4400 H     1 LIG   0.0000 
 34 C34     11.1380     2.6630    23.6110 C.ar  1 LIG   0.0000 
 35 C35     12.4740     2.2650    23.8810 C.ar  1 LIG   0.0000 
 36 H36     13.0720     2.8220    24.4580 H     1 LIG   0.0000 
 37 C37     12.9200     1.0960    23.3270 C.ar  1 LIG   0.0000 
 38 H38     13.8580     0.7950    23.5030 H     1 LIG   0.0000 
 39 C39     12.0740     0.3050    22.5070 C.ar  1 LIG   0.0000 
 40 F40     12.5600    -0.8200    21.9960 F     1 LIG   0.0000 
 41 C41     10.7900     0.7190    22.2680 C.ar  1 LIG   0.0000 
 42 H42     10.1820     0.1740    21.6910 H     1 LIG   0.0000 
 43 N43     10.3510     1.8900    22.8270 N.ar  1 LIG   1.0000 
 44 C44      6.5910     2.4460    22.3740 C.3   1 LIG   0.0000 
 45 H45      6.5100     3.0570    23.1620 H     1 LIG   0.0000 
 46 H46      5.8040     1.8300    22.3470 H     1 LIG   0.0000 
 47 C47      7.1950     2.9490    21.0940 C.3   1 LIG   0.0000 
 48 H48      6.8100     2.6670    20.2150 H     1 LIG   0.0000 
 49 H49      7.5170     3.8940    21.0300 H     1 LIG   0.0000 
 50 C50      6.8900     0.3460    20.4610 C.3   1 LIG   0.0000 
 51 C51      7.5550    -0.0350    19.1690 C.3   1 LIG   0.0000 
 52 H52      7.2540     0.3810    18.3110 H     1 LIG   0.0000 
 53 H53      8.5440    -0.1800    19.1410 H     1 LIG   0.0000 
 54 C54      6.6730    -1.0260    19.8710 C.3   1 LIG   0.0000 
 55 H55      6.1360     1.0020    20.4340 H     1 LIG   0.0000 
 56 H56      5.7780    -1.1630    19.4480 H     1 LIG   0.0000 
@<TRIPOS>BOND
  1   1   2  2   
  2   2   3  1   
  3   2   7  am  
  4   3   4  1   
  5   3   5  1   
  6   3   6  1   
  7   7   8  1   
  8   7  54  1   
  9   8   9  1   
 10   8  10  1   
 11   8  11  1   
 12  11  12  1   
 13  11  13  1   
 14  11  14  1   
 15  14  15  1   
 16  14  50  1   
 17  15  16  1   
 18  15  44  1   
 19  15  47  1   
 20  16  17  2   
 21  16  43  1   
 22  17  18  1   
 23  17  19  1   
 24  19  20  1   
 25  19  34  1   
 26  20  21  3   
 27  21  22  1   
 28  22  23  ar  
 29  22  31  ar  
 30  23  24  1   
 31  23  25  ar  
 32  25  26  1   
 33  25  27  ar  
 34  27  28  1   
 35  27  29  ar  
 36  29  30  1   
 37  29  31  ar  
 38  31  32  1   
 39  32  33  1   
 40  34  35  ar  
 41  34  43  ar  
 42  35  36  1   
 43  35  37  ar  
 44  37  38  1   
 45  37  39  ar  
 46  39  40  1   
 47  39  41  ar  
 48  41  42  1   
 49  41  43  ar  
 50  44  45  1   
 51  44  46  1   
 52  44  47  1   
 53  47  48  1   
 54  47  49  1   
 55  50  51  1   
 56  50  54  1   
 57  50  55  1   
 58  51  52  1   
 59  51  53  1   
 60  51  54  1   
 61  54  56  1   
@<TRIPOS>SUBSTRUCTURE
  1 LIG  16 GROUP 4 **** **** 0
@<TRIPOS>PROPERTY_DATA
index	|	ligand048
Name	|	BOG-INS-6c2-1
ChemPlp	|	-99.3431
MM-GBSA Nwat=0	|	-38.787
STDEV0	|	3.4952
MM-GBSA Nwat=30	|	-47.6297
STDEV30	|	4.4045
MM-GBSA Nwat=60	|	-52.4616
STDEV60	|	4.1513
ST.DEV < 10%	|	Y
RMSD LIG < 2	|	Y
DIST < 5	|	Y
DIST < 3.5	|	N

# MOE 2019.01 (io_trps.svl 2018.10)

@<TRIPOS>MOLECULE
ligand486
43 45 1 0 0 
SMALL
NO_CHARGES


@<TRIPOS>ATOM
  1 N1       9.9060     3.3610    22.2910 N.am  1 LIG   0.0000 
  2 C4       9.3490     2.1240    22.0950 C.2   1 LIG   0.0000 
  3 O5       8.8060     1.8680    21.0560 O.2   1 LIG   0.0000 
  4 C6       9.4180     1.0770    23.1950 C.3   1 LIG   0.0000 
  5 C9      10.6330     0.1910    22.9760 C.ar  1 LIG   0.0000 
  6 C10     11.9070     0.7500    22.9550 C.ar  1 LIG   0.0000 
  7 C12     13.0200    -0.0610    22.7540 C.ar  1 LIG   0.0000 
  8 C14     12.8580    -1.4310    22.5750 C.ar  1 LIG   0.0000 
  9 C16     11.5850    -1.9900    22.5960 C.ar  1 LIG   0.0000 
 10 C18     10.4720    -1.1790    22.7960 C.ar  1 LIG   0.0000 
 11 C19      9.0950    -1.8270    22.8120 C.3   1 LIG   0.0000 
 12 C20      8.8300    -2.3050    21.3960 C.3   1 LIG   0.0000 
 13 N23      7.5260    -2.9760    21.4260 N.am  1 LIG   0.0000 
 14 C24      6.3440    -2.3910    20.9640 C.2   1 LIG   0.0000 
 15 O25      5.3100    -2.9970    21.0250 O.2   1 LIG   0.0000 
 16 C26      6.3670    -0.9860    20.3830 C.3   1 LIG   0.0000 
 17 CL29     5.8010    -1.0320    18.6960 Cl    1 LIG   0.0000 
 18 C30      7.6000    -4.3240    22.0020 C.3   1 LIG   0.0000 
 19 C33      8.3800    -4.2160    23.3040 C.ar  1 LIG   0.0000 
 20 C34      8.3890    -5.3350    24.1230 C.ar  1 LIG   0.0000 
 21 C36      9.0850    -5.3330    25.3270 C.ar  1 LIG   0.0000 
 22 C38      9.7820    -4.1940    25.7160 C.ar  1 LIG   0.0000 
 23 C40      9.7730    -3.0710    24.8960 C.ar  1 LIG   0.0000 
 24 C42      9.0800    -3.0680    23.6910 C.ar  1 LIG   0.0000 
 25 H10     12.0230     1.7350    23.0840 H     1 LIG   0.0000 
 26 H12     13.9350     0.3410    22.7390 H     1 LIG   0.0000 
 27 H14     13.6580    -2.0140    22.4320 H     1 LIG   0.0000 
 28 H16     11.4690    -2.9750    22.4660 H     1 LIG   0.0000 
 29 H34      7.8880    -6.1540    23.8440 H     1 LIG   0.0000 
 30 H36      9.0840    -6.1460    25.9090 H     1 LIG   0.0000 
 31 H38     10.2850    -4.1820    26.5800 H     1 LIG   0.0000 
 32 H40     10.2740    -2.2520    25.1770 H     1 LIG   0.0000 
 33 H61      9.4920     1.5310    24.0830 H     1 LIG   0.0000 
 34 H62      8.5890     0.5180    23.1750 H     1 LIG   0.0000 
 35 H19      8.3970    -1.1740    23.1050 H     1 LIG   0.0000 
 36 H201     8.8060    -1.5290    20.7670 H     1 LIG   0.0000 
 37 H202     9.5420    -2.9460    21.1080 H     1 LIG   0.0000 
 38 H261     5.7670    -0.3930    20.9200 H     1 LIG   0.0000 
 39 H262     7.3010    -0.6290    20.4110 H     1 LIG   0.0000 
 40 H301     8.0710    -4.9410    21.3710 H     1 LIG   0.0000 
 41 H302     6.6800    -4.6710    22.1820 H     1 LIG   0.0000 
 42 H11     10.3580     3.5740    23.1570 H     1 LIG   0.0000 
 43 H12      9.8610     4.0500    21.5670 H     1 LIG   0.0000 
@<TRIPOS>BOND
  1   1   2  am  
  2   1  42  1   
  3   1  43  1   
  4   2   3  2   
  5   2   4  1   
  6   4   5  1   
  7   4  33  1   
  8   4  34  1   
  9   5   6  ar  
 10   5  10  ar  
 11   6   7  ar  
 12   6  25  1   
 13   7   8  ar  
 14   7  26  1   
 15   8   9  ar  
 16   8  27  1   
 17   9  10  ar  
 18   9  28  1   
 19  10  11  1   
 20  11  12  1   
 21  11  24  1   
 22  11  35  1   
 23  12  13  1   
 24  12  36  1   
 25  12  37  1   
 26  13  14  am  
 27  13  18  1   
 28  14  15  2   
 29  14  16  1   
 30  16  17  1   
 31  16  38  1   
 32  16  39  1   
 33  18  19  1   
 34  18  40  1   
 35  18  41  1   
 36  19  20  ar  
 37  19  24  ar  
 38  20  21  ar  
 39  20  29  1   
 40  21  22  ar  
 41  21  30  1   
 42  22  23  ar  
 43  22  31  1   
 44  23  24  ar  
 45  23  32  1   
@<TRIPOS>SUBSTRUCTURE
  1 LIG  11 GROUP 4 **** **** 0
@<TRIPOS>PROPERTY_DATA
index	|	ligand486
Name	|	NIR-THE-c33-5
ChemPlp	|	-92.229
MM-GBSA Nwat=0	|	-31.3181
STDEV0	|	2.8968
MM-GBSA Nwat=30	|	-47.4486
STDEV30	|	3.6525
MM-GBSA Nwat=60	|	-46.7591
STDEV60	|	3.6632
ST.DEV < 10%	|	Y
RMSD LIG < 2	|	Y
DIST < 5	|	Y
DIST < 3.5	|	N

# MOE 2019.01 (io_trps.svl 2018.10)

@<TRIPOS>MOLECULE
ligand510
54 56 1 0 0 
SMALL
NO_CHARGES


@<TRIPOS>ATOM
  1 C1       6.0560    -5.9010    27.9930 C.3   1 LIG   0.0000 
  2 H2       5.0940    -5.6550    28.1140 H     1 LIG   0.0000 
  3 H3       6.1360    -6.5840    27.2670 H     1 LIG   0.0000 
  4 H4       6.4140    -6.2800    28.8470 H     1 LIG   0.0000 
  5 C5       6.8530    -4.6630    27.6140 C.ar  1 LIG   0.0000 
  6 C6       8.2220    -4.7720    27.3940 C.ar  1 LIG   0.0000 
  7 H7       8.6770    -5.6580    27.4860 H     1 LIG   0.0000 
  8 C8       8.9560    -3.6430    27.0460 C.ar  1 LIG   0.0000 
  9 H9       9.9410    -3.7120    26.8870 H     1 LIG   0.0000 
 10 C10      8.3090    -2.4180    26.9210 C.ar  1 LIG   0.0000 
 11 C11      9.1060    -1.1810    26.5400 C.3   1 LIG   0.0000 
 12 H12     10.0580    -1.2980    26.8220 H     1 LIG   0.0000 
 13 H13      8.7180    -0.3810    26.9980 H     1 LIG   0.0000 
 14 C14      9.0440    -0.9830    25.0340 C.3   1 LIG   0.0000 
 15 H15      8.1200    -1.1810    24.7090 H     1 LIG   0.0000 
 16 H16      9.2800    -0.0360    24.8130 H     1 LIG   0.0000 
 17 C17     10.0310    -1.9210    24.3590 C.3   1 LIG   0.0000 
 18 C18     11.2240    -1.1250    23.8550 C.ar  1 LIG   0.0000 
 19 C19     11.5470     0.0890    24.4520 C.ar  1 LIG   0.0000 
 20 H20     11.0000     0.4430    25.2110 H     1 LIG   0.0000 
 21 C21     12.6420     0.8050    23.9780 C.ar  1 LIG   0.0000 
 22 H22     12.8800     1.6780    24.4010 H     1 LIG   0.0000 
 23 C23     13.4080     0.3210    22.9220 C.ar  1 LIG   0.0000 
 24 H24     14.1930     0.8410    22.5870 H     1 LIG   0.0000 
 25 C25     13.0680    -0.8960    22.3400 C.ar  1 LIG   0.0000 
 26 C26     13.8990    -1.4330    21.1860 C.1   1 LIG   0.0000 
 27 N27     14.5230    -1.8360    20.3210 N.1   1 LIG   0.0000 
 28 C28     11.9770    -1.6270    22.7980 C.ar  1 LIG   0.0000 
 29 H29     11.7380    -2.5010    22.3750 H     1 LIG   0.0000 
 30 N30      9.3750    -2.5900    23.2280 N.3   1 LIG   0.0000 
 31 C31      8.2170    -3.3150    23.7730 C.3   1 LIG   0.0000 
 32 H32      7.6140    -2.6640    24.2340 H     1 LIG   0.0000 
 33 H33      8.5400    -3.9940    24.4320 H     1 LIG   0.0000 
 34 C34      7.4320    -4.0230    22.6780 C.3   1 LIG   0.0000 
 35 H35      7.9420    -4.8310    22.3840 H     1 LIG   0.0000 
 36 H36      6.5450    -4.3040    23.0440 H     1 LIG   0.0000 
 37 N37      7.2150    -3.1450    21.5170 N.am  1 LIG   0.0000 
 38 C38      6.0470    -3.2930    20.7630 C.2   1 LIG   0.0000 
 39 O39      5.2380    -4.1260    21.0660 O.2   1 LIG   0.0000 
 40 C40      5.8010    -2.3980    19.5600 C.3   1 LIG   0.0000 
 41 H41      6.5460    -2.5100    18.9020 H     1 LIG   0.0000 
 42 H42      4.9350    -2.6500    19.1280 H     1 LIG   0.0000 
 43 CL43     5.7280    -0.7000    20.0880 Cl    1 LIG   0.0000 
 44 C44      8.1770    -2.1060    21.1160 C.3   1 LIG   0.0000 
 45 H45      7.6860    -1.3710    20.6480 H     1 LIG   0.0000 
 46 H46      8.8500    -2.5070    20.4950 H     1 LIG   0.0000 
 47 C47      8.8990    -1.5290    22.3250 C.3   1 LIG   0.0000 
 48 H48      9.6830    -0.9950    22.0100 H     1 LIG   0.0000 
 49 H49      8.2700    -0.9350    22.8260 H     1 LIG   0.0000 
 50 C50      6.9400    -2.3080    27.1420 C.ar  1 LIG   0.0000 
 51 H51      6.4860    -1.4220    27.0490 H     1 LIG   0.0000 
 52 C52      6.2070    -3.4370    27.4910 C.ar  1 LIG   0.0000 
 53 H53      5.2220    -3.3680    27.6530 H     1 LIG   0.0000 
 54 H54     10.3420    -2.6070    25.0170 H     1 LIG   0.0000 
@<TRIPOS>BOND
  1   1   2  1   
  2   1   3  1   
  3   1   4  1   
  4   1   5  1   
  5   5   6  ar  
  6   5  52  ar  
  7   6   7  1   
  8   6   8  ar  
  9   8   9  1   
 10   8  10  ar  
 11  10  11  1   
 12  10  50  ar  
 13  11  12  1   
 14  11  13  1   
 15  11  14  1   
 16  14  15  1   
 17  14  16  1   
 18  14  17  1   
 19  17  18  1   
 20  17  30  1   
 21  17  54  1   
 22  18  19  ar  
 23  18  28  ar  
 24  19  20  1   
 25  19  21  ar  
 26  21  22  1   
 27  21  23  ar  
 28  23  24  1   
 29  23  25  ar  
 30  25  26  1   
 31  25  28  ar  
 32  26  27  3   
 33  28  29  1   
 34  30  31  1   
 35  30  47  1   
 36  31  32  1   
 37  31  33  1   
 38  31  34  1   
 39  34  35  1   
 40  34  36  1   
 41  34  37  1   
 42  37  38  am  
 43  37  44  1   
 44  38  39  2   
 45  38  40  1   
 46  40  41  1   
 47  40  42  1   
 48  40  43  1   
 49  44  45  1   
 50  44  46  1   
 51  44  47  1   
 52  47  48  1   
 53  47  49  1   
 54  50  51  1   
 55  50  52  ar  
 56  52  53  1   
@<TRIPOS>SUBSTRUCTURE
  1 LIG  30 GROUP 4 **** **** 0
@<TRIPOS>PROPERTY_DATA
index	|	ligand510
Name	|	PAU-WEI-b9b-6
ChemPlp	|	-92.1435
MM-GBSA Nwat=0	|	-26.7828
STDEV0	|	2.79
MM-GBSA Nwat=30	|	-41.8201
STDEV30	|	4.1072
MM-GBSA Nwat=60	|	-46.2521
STDEV60	|	4.33
ST.DEV < 10%	|	Y
RMSD LIG < 2	|	Y
DIST < 5	|	Y
DIST < 3.5	|	Y

# MOE 2019.01 (io_trps.svl 2018.10)

@<TRIPOS>MOLECULE
ligand223
54 57 1 0 0 
SMALL
NO_CHARGES


@<TRIPOS>ATOM
  1 C1       6.6880    -6.7970    22.2950 C.2   1 LIG   0.0000 
  2 H2       6.5750    -7.7630    22.0600 H     1 LIG   0.0000 
  3 H3       7.3080    -6.5310    23.0330 H     1 LIG   0.0000 
  4 C4       6.0290    -5.8880    21.6400 C.2   1 LIG   0.0000 
  5 H5       5.4090    -6.1540    20.9020 H     1 LIG   0.0000 
  6 C6       6.2010    -4.4200    21.9970 C.2   1 LIG   0.0000 
  7 O7       5.5780    -3.5820    21.4050 O.2   1 LIG   0.0000 
  8 N8       7.0660    -4.0540    22.9940 N.am  1 LIG   0.0000 
  9 H9       7.5850    -4.7530    23.4870 H     1 LIG   0.0000 
 10 C10      7.2320    -2.6350    23.3390 C.3   1 LIG   0.0000 
 11 H11      6.5060    -2.0280    23.0140 H     1 LIG   0.0000 
 12 C12      8.6420    -2.1530    23.0790 C.3   1 LIG   0.0000 
 13 H13      9.3420    -2.8660    23.1090 H     1 LIG   0.0000 
 14 H14      8.7540    -1.6090    22.2480 H     1 LIG   0.0000 
 15 N15      8.5050    -1.3780    24.3040 N.3   1 LIG   0.0000 
 16 C16      9.7620    -1.3060    25.0620 C.3   1 LIG   0.0000 
 17 H17     10.0340    -2.2260    25.3440 H     1 LIG   0.0000 
 18 H18      9.6300    -0.7340    25.8720 H     1 LIG   0.0000 
 19 C19     10.8470    -0.7020    24.1860 C.ar  1 LIG   0.0000 
 20 C20     11.5670    -1.5380    23.3380 C.ar  1 LIG   0.0000 
 21 H21     11.3710    -2.5180    23.3080 H     1 LIG   0.0000 
 22 C22     12.5620    -0.9930    22.5340 C.ar  1 LIG   0.0000 
 23 H23     13.0910    -1.5780    21.9180 H     1 LIG   0.0000 
 24 C24     12.8150     0.3740    22.5940 C.ar  1 LIG   0.0000 
 25 H25     13.5300     0.7640    22.0150 H     1 LIG   0.0000 
 26 C26     12.0960     1.2130    23.4410 C.ar  1 LIG   0.0000 
 27 C27     12.0830     2.5910    23.7540 C.2   1 LIG   0.0000 
 28 C28     12.9930     3.6440    23.1410 C.3   1 LIG   0.0000 
 29 H29     12.9370     3.5930    22.1440 H     1 LIG   0.0000 
 30 H30     13.9350     3.4800    23.4310 H     1 LIG   0.0000 
 31 C31     12.5530     5.0240    23.6030 C.3   1 LIG   0.0000 
 32 H32     12.4870     5.0360    24.6010 H     1 LIG   0.0000 
 33 H33     13.2220     5.7040    23.3050 H     1 LIG   0.0000 
 34 N34     11.2400     5.3400    23.0210 N.am  1 LIG   0.0000 
 35 H35     11.0150     5.0310    22.0970 H     1 LIG   0.0000 
 36 C36     10.3260     6.0590    23.7450 C.2   1 LIG   0.0000 
 37 O37     10.5960     6.4310    24.8540 O.2   1 LIG   0.0000 
 38 C38      9.0330     6.3710    23.1720 C.2   1 LIG   0.0000 
 39 C39      8.1070     7.2040    23.7270 C.2   1 LIG   0.0000 
 40 H40      8.1900     7.7030    24.5890 H     1 LIG   0.0000 
 41 C41      7.0030     7.2220    22.8420 C.2   1 LIG   0.0000 
 42 H42      6.1570     7.7410    22.9660 H     1 LIG   0.0000 
 43 C43      7.2990     6.4040    21.7900 C.2   1 LIG   0.0000 
 44 H44      6.7060     6.2180    21.0050 H     1 LIG   0.0000 
 45 N45      8.5450     5.8830    21.9940 N.pl3 1 LIG   0.0000 
 46 H46      9.0210     5.2500    21.3840 H     1 LIG   0.0000 
 47 C47     11.1240     2.8300    24.6950 C.2   1 LIG   0.0000 
 48 H48     10.8970     3.7170    25.0960 H     1 LIG   0.0000 
 49 N49     10.5300     1.6370    24.9880 N.pl3 1 LIG   0.0000 
 50 H50      9.7900     1.5000    25.6470 H     1 LIG   0.0000 
 51 C51     11.1140     0.6600    24.2320 C.ar  1 LIG   0.0000 
 52 C52      7.6300    -2.4480    24.7860 C.3   1 LIG   0.0000 
 53 H53      6.8920    -2.1500    25.3910 H     1 LIG   0.0000 
 54 H54      8.1040    -3.2280    25.1960 H     1 LIG   0.0000 
@<TRIPOS>BOND
  1   1   2  1   
  2   1   3  1   
  3   1   4  2   
  4   4   5  1   
  5   4   6  1   
  6   6   7  2   
  7   6   8  am  
  8   8   9  1   
  9   8  10  1   
 10  10  11  1   
 11  10  12  1   
 12  10  52  1   
 13  12  13  1   
 14  12  14  1   
 15  12  15  1   
 16  15  16  1   
 17  15  52  1   
 18  16  17  1   
 19  16  18  1   
 20  16  19  1   
 21  19  20  ar  
 22  19  51  ar  
 23  20  21  1   
 24  20  22  ar  
 25  22  23  1   
 26  22  24  ar  
 27  24  25  1   
 28  24  26  ar  
 29  26  27  1   
 30  26  51  ar  
 31  27  28  1   
 32  27  47  2   
 33  28  29  1   
 34  28  30  1   
 35  28  31  1   
 36  31  32  1   
 37  31  33  1   
 38  31  34  1   
 39  34  35  1   
 40  34  36  am  
 41  36  37  2   
 42  36  38  1   
 43  38  39  2   
 44  38  45  1   
 45  39  40  1   
 46  39  41  1   
 47  41  42  1   
 48  41  43  2   
 49  43  44  1   
 50  43  45  1   
 51  45  46  1   
 52  47  48  1   
 53  47  49  1   
 54  49  50  1   
 55  49  51  1   
 56  52  53  1   
 57  52  54  1   
@<TRIPOS>SUBSTRUCTURE
  1 LIG  51 GROUP 4 **** **** 0
@<TRIPOS>PROPERTY_DATA
index	|	ligand223
Name	|	JAN-GHE-641-3
ChemPlp	|	-104.869
MM-GBSA Nwat=0	|	-27.6199
STDEV0	|	2.7881
MM-GBSA Nwat=30	|	-62.7854
STDEV30	|	5.6707
MM-GBSA Nwat=60	|	-73.9768
STDEV60	|	6.1459
ST.DEV < 10%	|	Y
RMSD LIG < 2	|	Y
DIST < 5	|	N(*)
DIST < 3.5	|	N

# MOE 2019.01 (io_trps.svl 2018.10)

@<TRIPOS>MOLECULE
ligand055
85 87 1 0 0 
SMALL
USER_CHARGES


@<TRIPOS>ATOM
  1 C1       8.6210     7.5350    25.0190 C.3   1 LIG   0.0000 
  2 C5       7.5520     8.2230    24.1850 C.ar  1 LIG   0.0000 
  3 C6       6.8320     9.2740    24.7430 C.ar  1 LIG   0.0000 
  4 C8       5.8480     9.9160    23.9980 C.ar  1 LIG   0.0000 
  5 C10      5.5860     9.5070    22.6940 C.ar  1 LIG   0.0000 
  6 C12      6.3070     8.4570    22.1360 C.ar  1 LIG   0.0000 
  7 C13      6.0210     8.0120    20.7110 C.3   1 LIG   0.0000 
  8 O16      5.7930     9.1510    19.8950 O.3   1 LIG   0.0000 
  9 C18      7.2900     7.8150    22.8820 C.ar  1 LIG   0.0000 
 10 N19      8.0160     6.7570    22.3200 N.am  1 LIG   0.0000 
 11 C21      7.9690     5.5140    22.8930 C.2   1 LIG   0.0000 
 12 O22      7.3060     5.3310    23.8770 O.2   1 LIG   0.0000 
 13 N23      8.6790     4.4790    22.3440 N.am  1 LIG   0.0000 
 14 C25      8.6290     3.1450    22.9580 C.3   1 LIG   0.0000 
 15 C26      9.3780     3.1680    24.2810 C.3   1 LIG   0.0000 
 16 C29     10.7660     3.7490    24.0670 C.ar  1 LIG   0.0000 
 17 C30     10.9710     5.1140    24.2380 C.ar  1 LIG   0.0000 
 18 C32     12.2400     5.6500    24.0440 C.ar  1 LIG   0.0000 
 19 C34     13.2890     4.8120    23.6810 C.ar  1 LIG   0.0000 
 20 O35     14.5220     5.3280    23.4910 O.3   1 LIG   0.0000 
 21 C37     13.0900     3.4470    23.5080 C.ar  1 LIG   0.0000 
 22 C39     11.8200     2.9160    23.7040 C.ar  1 LIG   0.0000 
 23 C41      9.2770     2.1330    22.0270 C.2   1 LIG   0.0000 
 24 O42     10.3030     2.4040    21.4670 O.2   1 LIG   0.0000 
 25 N43      8.6890     0.9120    21.8270 N.am  1 LIG   0.0000 
 26 C44      7.4320     0.5800    22.5120 C.3   1 LIG   0.0000 
 27 C47      6.3500     0.3010    21.4810 C.3   1 LIG   0.0000 
 28 C50      6.1020     1.5530    20.6560 C.3   1 LIG   0.0000 
 29 C53      5.2300     1.2070    19.4600 C.2   1 LIG   0.0000 
 30 N54      4.4740     2.1790    18.8600 N.am  1 LIG   0.0000 
 31 O57      5.2030     0.0820    19.0420 O.2   1 LIG   0.0000 
 32 C58      9.3150    -0.0660    20.9260 C.3   1 LIG   0.0000 
 33 C61     10.0820    -1.0910    21.7460 C.3   1 LIG   0.0000 
 34 N64      9.1350    -1.9260    22.4970 N.4   1 LIG   1.0000 
 35 C65      9.8520    -2.8030    23.4390 C.3   1 LIG   0.0000 
 36 C68      8.8160    -3.5680    24.2480 C.3   1 LIG   0.0000 
 37 C71      7.9580    -4.4540    23.3590 C.3   1 LIG   0.0000 
 38 N74      7.5080    -3.7270    22.1620 N.am  1 LIG   0.0000 
 39 C75      6.2560    -4.0610    21.6330 C.2   1 LIG   0.0000 
 40 O76      5.8460    -3.4920    20.6590 O.2   1 LIG   0.0000 
 41 C77      5.4170    -5.1440    22.2900 C.3   1 LIG   0.0000 
 42 CL80     6.4190    -6.5900    22.5580 Cl    1 LIG   0.0000 
 43 C81      8.3220    -2.6770    21.5250 C.3   1 LIG   0.0000 
 44 H6       7.0200     9.5670    25.6800 H     1 LIG   0.0000 
 45 H8       5.3300    10.6710    24.3990 H     1 LIG   0.0000 
 46 H10      4.8790     9.9690    22.1580 H     1 LIG   0.0000 
 47 H30     10.2090     5.7080    24.5000 H     1 LIG   0.0000 
 48 H32     12.3960     6.6310    24.1650 H     1 LIG   0.0000 
 49 H37     13.8520     2.8530    23.2460 H     1 LIG   0.0000 
 50 H39     11.6630     1.9360    23.5840 H     1 LIG   0.0000 
 51 H11      8.6660     7.9630    25.9220 H     1 LIG   0.0000 
 52 H12      8.3940     6.5660    25.1200 H     1 LIG   0.0000 
 53 H13      9.5080     7.6240    24.5640 H     1 LIG   0.0000 
 54 H131     6.8040     7.5000    20.3580 H     1 LIG   0.0000 
 55 H132     5.2100     7.4270    20.7010 H     1 LIG   0.0000 
 56 H25      7.6760     2.8880    23.1190 H     1 LIG   0.0000 
 57 H261     8.8780     3.7330    24.9370 H     1 LIG   0.0000 
 58 H262     9.4580     2.2360    24.6350 H     1 LIG   0.0000 
 59 H441     7.1530     1.3490    23.0880 H     1 LIG   0.0000 
 60 H442     7.5660    -0.2300    23.0820 H     1 LIG   0.0000 
 61 H471     5.5060     0.0360    21.9470 H     1 LIG   0.0000 
 62 H472     6.6470    -0.4410    20.8800 H     1 LIG   0.0000 
 63 H501     5.6390     2.2380    21.2190 H     1 LIG   0.0000 
 64 H502     6.9760     1.9200    20.3360 H     1 LIG   0.0000 
 65 H581     9.9440     0.4050    20.3080 H     1 LIG   0.0000 
 66 H582     8.6070    -0.5290    20.3920 H     1 LIG   0.0000 
 67 H611    10.6240    -1.6680    21.1350 H     1 LIG   0.0000 
 68 H612    10.6900    -0.6190    22.3840 H     1 LIG   0.0000 
 69 H64      8.5300    -1.3260    23.0210 H     1 LIG   0.0000 
 70 H651    10.4210    -2.2520    24.0500 H     1 LIG   0.0000 
 71 H652    10.4300    -3.4440    22.9340 H     1 LIG   0.0000 
 72 H681     8.2260    -2.9140    24.7220 H     1 LIG   0.0000 
 73 H682     9.2870    -4.1400    24.9200 H     1 LIG   0.0000 
 74 H711     8.4940    -5.2500    23.0760 H     1 LIG   0.0000 
 75 H712     7.1580    -4.7590    23.8760 H     1 LIG   0.0000 
 76 H771     5.0710    -4.8110    23.1670 H     1 LIG   0.0000 
 77 H772     4.6480    -5.3770    21.6950 H     1 LIG   0.0000 
 78 H811     8.9320    -3.1050    20.8590 H     1 LIG   0.0000 
 79 H812     7.7110    -2.0390    21.0560 H     1 LIG   0.0000 
 80 H19      8.5680     6.9100    21.5000 H     1 LIG   0.0000 
 81 H23      9.2320     4.6320    21.5240 H     1 LIG   0.0000 
 82 H541     4.4960     3.1160    19.2080 H     1 LIG   0.0000 
 83 H542     3.9000     1.9510    18.0730 H     1 LIG   0.0000 
 84 H16      6.2240     9.9510    20.3120 H     1 LIG   0.0000 
 85 H35     14.7280     6.2580    23.7980 H     1 LIG   0.0000 
@<TRIPOS>BOND
  1   1   2  1   
  2   1  51  1   
  3   1  52  1   
  4   1  53  1   
  5   2   3  ar  
  6   2   9  ar  
  7   3   4  ar  
  8   3  44  1   
  9   4   5  ar  
 10   4  45  1   
 11   5   6  ar  
 12   5  46  1   
 13   6   7  1   
 14   6   9  ar  
 15   7   8  1   
 16   7  54  1   
 17   7  55  1   
 18   8  84  1   
 19   9  10  1   
 20  10  11  am  
 21  10  80  1   
 22  11  12  2   
 23  11  13  am  
 24  13  14  1   
 25  13  81  1   
 26  14  15  1   
 27  14  23  1   
 28  14  56  1   
 29  15  16  1   
 30  15  57  1   
 31  15  58  1   
 32  16  17  ar  
 33  16  22  ar  
 34  17  18  ar  
 35  17  47  1   
 36  18  19  ar  
 37  18  48  1   
 38  19  20  1   
 39  19  21  ar  
 40  20  85  1   
 41  21  22  ar  
 42  21  49  1   
 43  22  50  1   
 44  23  24  2   
 45  23  25  am  
 46  25  26  1   
 47  25  32  1   
 48  26  27  1   
 49  26  59  1   
 50  26  60  1   
 51  27  28  1   
 52  27  61  1   
 53  27  62  1   
 54  28  29  1   
 55  28  63  1   
 56  28  64  1   
 57  29  30  am  
 58  29  31  2   
 59  30  82  1   
 60  30  83  1   
 61  32  33  1   
 62  32  65  1   
 63  32  66  1   
 64  33  34  1   
 65  33  67  1   
 66  33  68  1   
 67  34  35  1   
 68  34  43  1   
 69  34  69  1   
 70  35  36  1   
 71  35  70  1   
 72  35  71  1   
 73  36  37  1   
 74  36  72  1   
 75  36  73  1   
 76  37  38  1   
 77  37  74  1   
 78  37  75  1   
 79  38  39  am  
 80  38  43  1   
 81  39  40  2   
 82  39  41  1   
 83  41  42  1   
 84  41  76  1   
 85  41  77  1   
 86  43  78  1   
 87  43  79  1   
@<TRIPOS>SUBSTRUCTURE
  1 LIG  14 GROUP 4 **** **** 0
@<TRIPOS>PROPERTY_DATA
index	|	ligand055
Name	|	CHA-KIN-87c-2
ChemPlp	|	-118.061
MM-GBSA Nwat=0	|	-46.2047
STDEV0	|	3.7467
MM-GBSA Nwat=30	|	-85.579
STDEV30	|	7.0663
MM-GBSA Nwat=60	|	-107.807
STDEV60	|	7.6274
ST.DEV < 10%	|	Y
RMSD LIG < 2	|	Y
DIST < 5	|	N
DIST < 3.5	|	N

# MOE 2019.01 (io_trps.svl 2018.10)

@<TRIPOS>MOLECULE
ligand316
52 52 1 0 0 
SMALL
USER_CHARGES


@<TRIPOS>ATOM
  1 C1       3.2330     2.1720    20.3020 C.3   1 LIG   0.0000 
  2 C5       4.6260     1.7750    19.8430 C.2   1 LIG   0.0000 
  3 O6       5.5510     1.8460    20.6040 O.2   1 LIG   0.0000 
  4 N7       4.8260     1.3360    18.5610 N.am  1 LIG   0.0000 
  5 C9       6.1740     0.9510    18.1180 C.3   1 LIG   0.0000 
  6 C12      6.7380    -0.0980    19.0620 C.3   1 LIG   0.0000 
  7 C15      5.7060    -1.1920    19.2780 C.3   1 LIG   0.0000 
  8 C18      6.2930    -2.2740    20.1710 C.2   1 LIG   0.0000 
  9 O19      5.7790    -3.3570    20.2180 O.2   1 LIG   0.0000 
 10 N20      7.4090    -2.0110    20.9210 N.am  1 LIG   0.0000 
 11 C22      7.9770    -3.0570    21.7840 C.3   1 LIG   0.0000 
 12 C25      9.1640    -2.4940    22.5490 C.2   1 LIG   0.0000 
 13 O26      9.1580    -2.4930    23.7490 O.2   1 LIG   0.0000 
 14 N27     10.2390    -1.9870    21.8680 N.am  1 LIG   0.0000 
 15 C29     11.3870    -1.4420    22.6080 C.3   1 LIG   0.0000 
 16 N32     11.5710    -0.0270    22.2540 N.4   1 LIG   1.0000 
 17 C34     10.3180     0.6680    22.5920 C.3   1 LIG   0.0000 
 18 C37     10.4040     2.1610    22.3120 C.3   1 LIG   0.0000 
 19 N40     11.6650     2.7330    22.8100 N.am  1 LIG   0.0000 
 20 C41     11.6610     4.0530    23.2730 C.2   1 LIG   0.0000 
 21 O42     10.6460     4.6920    23.2570 O.2   1 LIG   0.0000 
 22 C43     12.9440     4.6780    23.7960 C.3   1 LIG   0.0000 
 23 CL46    13.6140     5.7760    22.5650 Cl    1 LIG   0.0000 
 24 C47     12.9210     1.9670    22.8520 C.3   1 LIG   0.0000 
 25 C50     12.6690     0.4850    23.0900 C.3   1 LIG   0.0000 
 26 H11      2.5870     2.0520    19.5470 H     1 LIG   0.0000 
 27 H12      2.9580     1.5950    21.0700 H     1 LIG   0.0000 
 28 H13      3.2360     3.1300    20.5880 H     1 LIG   0.0000 
 29 H91      6.7680     1.7560    18.1210 H     1 LIG   0.0000 
 30 H92      6.1270     0.5760    17.1920 H     1 LIG   0.0000 
 31 H121     6.9610     0.3280    19.9390 H     1 LIG   0.0000 
 32 H122     7.5660    -0.4940    18.6640 H     1 LIG   0.0000 
 33 H151     4.8950    -0.8040    19.7150 H     1 LIG   0.0000 
 34 H152     5.4520    -1.5900    18.3960 H     1 LIG   0.0000 
 35 H221     8.2780    -3.8270    21.2210 H     1 LIG   0.0000 
 36 H222     7.2810    -3.3690    22.4310 H     1 LIG   0.0000 
 37 H291    11.2170    -1.5200    23.5900 H     1 LIG   0.0000 
 38 H292    12.2110    -1.9550    22.3700 H     1 LIG   0.0000 
 39 H32     11.7850     0.0730    21.2820 H     1 LIG   0.0000 
 40 H341    10.1260     0.5330    23.5640 H     1 LIG   0.0000 
 41 H342     9.5750     0.2790    22.0480 H     1 LIG   0.0000 
 42 H371    10.3480     2.3100    21.3240 H     1 LIG   0.0000 
 43 H372     9.6380     2.6200    22.7620 H     1 LIG   0.0000 
 44 H431    12.7480     5.1930    24.6310 H     1 LIG   0.0000 
 45 H432    13.6080     3.9580    23.9970 H     1 LIG   0.0000 
 46 H471    13.4920     2.3220    23.5930 H     1 LIG   0.0000 
 47 H472    13.3980     2.0790    21.9810 H     1 LIG   0.0000 
 48 H501    13.5030    -0.0230    22.8760 H     1 LIG   0.0000 
 49 H502    12.4330     0.3480    24.0520 H     1 LIG   0.0000 
 50 H7       4.0560     1.2760    17.9270 H     1 LIG   0.0000 
 51 H20      7.8380    -1.1090    20.8810 H     1 LIG   0.0000 
 52 H27     10.2440    -1.9870    20.8680 H     1 LIG   0.0000 
@<TRIPOS>BOND
  1   1   2  1   
  2   1  26  1   
  3   1  27  1   
  4   1  28  1   
  5   2   3  2   
  6   2   4  am  
  7   4   5  1   
  8   4  50  1   
  9   5   6  1   
 10   5  29  1   
 11   5  30  1   
 12   6   7  1   
 13   6  31  1   
 14   6  32  1   
 15   7   8  1   
 16   7  33  1   
 17   7  34  1   
 18   8   9  2   
 19   8  10  am  
 20  10  11  1   
 21  10  51  1   
 22  11  12  1   
 23  11  35  1   
 24  11  36  1   
 25  12  13  2   
 26  12  14  am  
 27  14  15  1   
 28  14  52  1   
 29  15  16  1   
 30  15  37  1   
 31  15  38  1   
 32  16  17  1   
 33  16  25  1   
 34  16  39  1   
 35  17  18  1   
 36  17  40  1   
 37  17  41  1   
 38  18  19  1   
 39  18  42  1   
 40  18  43  1   
 41  19  20  am  
 42  19  24  1   
 43  20  21  2   
 44  20  22  1   
 45  22  23  1   
 46  22  44  1   
 47  22  45  1   
 48  24  25  1   
 49  24  46  1   
 50  24  47  1   
 51  25  48  1   
 52  25  49  1   
@<TRIPOS>SUBSTRUCTURE
  1 LIG  17 GROUP 4 **** **** 0
@<TRIPOS>PROPERTY_DATA
index	|	ligand316
Name	|	MAK-UNK-7d5-1
ChemPlp	|	-91.9024
MM-GBSA Nwat=0	|	-19.2331
STDEV0	|	3.8385
MM-GBSA Nwat=30	|	-79.9534
STDEV30	|	5.8816
MM-GBSA Nwat=60	|	-81.0694
STDEV60	|	5.9764
ST.DEV < 10%	|	Y
RMSD LIG < 2	|	Y
DIST < 5	|	N
DIST < 3.5	|	N

# MOE 2019.01 (io_trps.svl 2018.10)

@<TRIPOS>MOLECULE
ligand248
58 62 1 0 0 
SMALL
USER_CHARGES


@<TRIPOS>ATOM
  1 O1       9.5280     2.5100    22.5270 O.2   1 LIG   0.0000 
  2 C2       8.8760     2.0150    23.4040 C.2   1 LIG   0.0000 
  3 N3       7.7330     2.6320    23.8400 N.am  1 LIG   0.0000 
  4 C5       7.3270     3.8420    23.2630 C.2   1 LIG   0.0000 
  5 C6       6.1930     4.5240    23.5890 C.2   1 LIG   0.0000 
  6 C8       6.1560     5.6820    22.7790 C.ar  1 LIG   0.0000 
  7 C9       5.2950     6.7680    22.6190 C.ar  1 LIG   0.0000 
  8 C11      5.5370     7.7880    21.7010 C.ar  1 LIG   0.0000 
  9 C12      4.6320     8.9160    21.5350 C.2   1 LIG   0.0000 
 10 O13      4.8540     9.7500    20.6870 O.co2 1 LIG  -0.5000 
 11 O14      3.6250     9.0230    22.2680 O.co2 1 LIG  -0.5000 
 12 C16      6.7010     7.6680    20.9470 C.ar  1 LIG   0.0000 
 13 N18      7.5280     6.6230    21.1050 N.ar  1 LIG   0.0000 
 14 C19      7.2820     5.6430    21.9900 C.ar  1 LIG   0.0000 
 15 N20      7.9980     4.5180    22.2890 N.pl3 1 LIG   0.0000 
 16 N22      9.2730     0.8320    23.9690 N.am  1 LIG   0.0000 
 17 C24     10.4400     0.2000    23.5230 C.ar  1 LIG   0.0000 
 18 C25     11.6600     0.8680    23.5860 C.ar  1 LIG   0.0000 
 19 C27     12.8110     0.2280    23.1390 C.ar  1 LIG   0.0000 
 20 O28     13.9950     0.8750    23.1980 O.3   1 LIG   0.0000 
 21 C30     12.7610    -1.0660    22.6320 C.ar  1 LIG   0.0000 
 22 C32     11.5380    -1.7280    22.5720 C.ar  1 LIG   0.0000 
 23 C34     10.3820    -1.0960    23.0180 C.ar  1 LIG   0.0000 
 24 C35      9.0480    -1.8260    22.9500 C.3   1 LIG   0.0000 
 25 C36      8.8990    -2.3130    21.5210 C.3   1 LIG   0.0000 
 26 N39      7.6390    -3.0620    21.4720 N.am  1 LIG   0.0000 
 27 C40      6.4530    -2.5480    20.9380 C.2   1 LIG   0.0000 
 28 O41      5.4560    -3.2170    20.9370 O.2   1 LIG   0.0000 
 29 C42      6.4260    -1.1420    20.3610 C.3   1 LIG   0.0000 
 30 CL45     5.8000    -1.1970    18.6950 Cl    1 LIG   0.0000 
 31 C46      7.7600    -4.4060    22.0500 C.3   1 LIG   0.0000 
 32 C49      8.4510    -4.2560    23.3970 C.ar  1 LIG   0.0000 
 33 C50      8.4790    -5.3760    24.2140 C.ar  1 LIG   0.0000 
 34 C52      9.1000    -5.3370    25.4580 C.ar  1 LIG   0.0000 
 35 C54      9.7010    -4.1590    25.8900 C.ar  1 LIG   0.0000 
 36 C56      9.6740    -3.0350    25.0710 C.ar  1 LIG   0.0000 
 37 C58      9.0560    -3.0700    23.8260 C.ar  1 LIG   0.0000 
 38 H6       5.5140     4.2550    24.2720 H     1 LIG   0.0000 
 39 H20      8.8610     4.2400    21.8680 H     1 LIG   0.0000 
 40 H9       4.4720     6.8150    23.1840 H     1 LIG   0.0000 
 41 H16      6.9260     8.3740    20.2750 H     1 LIG   0.0000 
 42 H25     11.7080     1.7980    23.9480 H     1 LIG   0.0000 
 43 H30     13.5950    -1.5160    22.3120 H     1 LIG   0.0000 
 44 H32     11.4910    -2.6590    22.2100 H     1 LIG   0.0000 
 45 H50      8.0470    -6.2230    23.9050 H     1 LIG   0.0000 
 46 H52      9.1140    -6.1510    26.0390 H     1 LIG   0.0000 
 47 H54     10.1500    -4.1210    26.7820 H     1 LIG   0.0000 
 48 H56     10.1050    -2.1890    25.3820 H     1 LIG   0.0000 
 49 H35      8.2950    -1.2170    23.2010 H     1 LIG   0.0000 
 50 H361     8.8650    -1.5370    20.8920 H     1 LIG   0.0000 
 51 H362     9.6650    -2.9080    21.2760 H     1 LIG   0.0000 
 52 H421     5.8330    -0.5630    20.9210 H     1 LIG   0.0000 
 53 H422     7.3520    -0.7650    20.3570 H     1 LIG   0.0000 
 54 H461     8.3050    -4.9900    21.4480 H     1 LIG   0.0000 
 55 H462     6.8530    -4.8090    22.1730 H     1 LIG   0.0000 
 56 H3       7.1900     2.2200    24.5710 H     1 LIG   0.0000 
 57 H22      8.7290     0.4190    24.7000 H     1 LIG   0.0000 
 58 H28     14.0550     1.7660    23.6460 H     1 LIG   0.0000 
@<TRIPOS>BOND
  1   1   2  2   
  2   2   3  am  
  3   2  16  am  
  4   3   4  1   
  5   3  56  1   
  6   4   5  2   
  7   4  15  1   
  8   5   6  1   
  9   5  38  1   
 10   6   7  ar  
 11   6  14  ar  
 12   7   8  ar  
 13   7  40  1   
 14   8   9  1   
 15   8  12  ar  
 16   9  10  ar  
 17   9  11  ar  
 18  12  13  ar  
 19  12  41  1   
 20  13  14  ar  
 21  14  15  1   
 22  15  39  1   
 23  16  17  1   
 24  16  57  1   
 25  17  18  ar  
 26  17  23  ar  
 27  18  19  ar  
 28  18  42  1   
 29  19  20  1   
 30  19  21  ar  
 31  20  58  1   
 32  21  22  ar  
 33  21  43  1   
 34  22  23  ar  
 35  22  44  1   
 36  23  24  1   
 37  24  25  1   
 38  24  37  1   
 39  24  49  1   
 40  25  26  1   
 41  25  50  1   
 42  25  51  1   
 43  26  27  am  
 44  26  31  1   
 45  27  28  2   
 46  27  29  1   
 47  29  30  1   
 48  29  52  1   
 49  29  53  1   
 50  31  32  1   
 51  31  54  1   
 52  31  55  1   
 53  32  33  ar  
 54  32  37  ar  
 55  33  34  ar  
 56  33  45  1   
 57  34  35  ar  
 58  34  46  1   
 59  35  36  ar  
 60  35  47  1   
 61  36  37  ar  
 62  36  48  1   
@<TRIPOS>SUBSTRUCTURE
  1 LIG   2 GROUP 4 **** **** 0
@<TRIPOS>PROPERTY_DATA
index	|	ligand248
Name	|	JAN-LUN-04a-6
ChemPlp	|	-93.7075
MM-GBSA Nwat=0	|	-32.1721
STDEV0	|	3.1974
MM-GBSA Nwat=30	|	-74.3541
STDEV30	|	6.8441
MM-GBSA Nwat=60	|	-93.3572
STDEV60	|	7.7934
ST.DEV < 10%	|	Y
RMSD LIG < 2	|	Y
DIST < 5	|	N
DIST < 3.5	|	N

# MOE 2019.01 (io_trps.svl 2018.10)

@<TRIPOS>MOLECULE
ligand044
64 67 1 0 0 
SMALL
USER_CHARGES


@<TRIPOS>ATOM
  1 C1       6.7000    -6.1690    21.6950 C.3   1 LIG   0.0000 
  2 C5       7.0020    -4.7500    22.1480 C.3   1 LIG   0.0000 
  3 N6       6.5020    -4.5560    23.5170 N.4   1 LIG   1.0000 
  4 C9       6.3200    -3.7640    21.2150 C.2   1 LIG   0.0000 
  5 O10      5.8020    -4.1540    20.2050 O.2   1 LIG   0.0000 
  6 C11      6.2920    -2.2840    21.5600 C.3   1 LIG   0.0000 
  7 C12      7.7330    -1.7860    21.5280 C.3   1 LIG   0.0000 
  8 C15      7.8680    -0.2770    21.6060 C.ar  1 LIG   0.0000 
  9 C16      6.7900     0.5270    21.2420 C.ar  1 LIG   0.0000 
 10 C17      6.9560     1.9090    21.2890 C.ar  1 LIG   0.0000 
 11 C19      8.1560     2.4820    21.6950 C.ar  1 LIG   0.0000 
 12 C21      9.2180     1.6680    22.0680 C.ar  1 LIG   0.0000 
 13 F22     10.3740     2.1960    22.4580 F     1 LIG   0.0000 
 14 C23      9.0750     0.2830    22.0310 C.ar  1 LIG   0.0000 
 15 C24     10.2160    -0.5180    22.4340 C.ar  1 LIG   0.0000 
 16 C25     11.3970    -0.3990    21.7090 C.ar  1 LIG   0.0000 
 17 C27     12.5010    -1.1590    22.0810 C.ar  1 LIG   0.0000 
 18 F28     13.6350    -1.0530    21.3940 F     1 LIG   0.0000 
 19 C29     12.4430    -2.0330    23.1610 C.ar  1 LIG   0.0000 
 20 C31     11.2550    -2.1410    23.8760 C.ar  1 LIG   0.0000 
 21 C33     10.1410    -1.3890    23.5180 C.ar  1 LIG   0.0000 
 22 C34      8.8660    -1.5420    24.3300 C.3   1 LIG   0.0000 
 23 C35      9.0700    -2.6740    25.3260 C.3   1 LIG   0.0000 
 24 N38      7.9810    -2.7010    26.3140 N.am  1 LIG   0.0000 
 25 C39      7.5620    -3.9280    26.8440 C.2   1 LIG   0.0000 
 26 O40      6.6750    -3.9610    27.6510 O.2   1 LIG   0.0000 
 27 C41      8.2320    -5.2170    26.3970 C.3   1 LIG   0.0000 
 28 CL44    10.0000    -5.0320    26.4950 Cl    1 LIG   0.0000 
 29 C45      7.3140    -1.4680    26.7590 C.3   1 LIG   0.0000 
 30 C48      7.2780    -0.4420    25.6380 C.3   1 LIG   0.0000 
 31 O51      8.5410    -0.3290    24.9960 O.3   1 LIG   0.0000 
 32 N52      5.5010    -0.0510    20.8070 N.4   1 LIG   1.0000 
 33 C53      4.9600     0.6300    19.6220 C.3   1 LIG   0.0000 
 34 C57      5.5570    -1.4880    20.4940 C.3   1 LIG   0.0000 
 35 H17      6.1950     2.5020    21.0240 H     1 LIG   0.0000 
 36 H19      8.2540     3.4770    21.7190 H     1 LIG   0.0000 
 37 H25     11.4520     0.2260    20.9300 H     1 LIG   0.0000 
 38 H29     13.2430    -2.5750    23.4200 H     1 LIG   0.0000 
 39 H31     11.2000    -2.7660    24.6550 H     1 LIG   0.0000 
 40 H11      7.0400    -6.3010    20.7640 H     1 LIG   0.0000 
 41 H12      7.1500    -6.8180    22.3090 H     1 LIG   0.0000 
 42 H13      5.7120    -6.3220    21.7140 H     1 LIG   0.0000 
 43 H5       7.9900    -4.5970    22.1290 H     1 LIG   0.0000 
 44 H61      5.7500    -3.8970    23.5070 H     1 LIG   0.0000 
 45 H62      6.1760    -5.4290    23.8800 H     1 LIG   0.0000 
 46 H63      7.2410    -4.2100    24.0950 H     1 LIG   0.0000 
 47 H11      5.8840    -2.1360    22.4610 H     1 LIG   0.0000 
 48 H121     8.2220    -2.1850    22.3040 H     1 LIG   0.0000 
 49 H122     8.1530    -2.0950    20.6740 H     1 LIG   0.0000 
 50 H34      8.1160    -1.7840    23.7140 H     1 LIG   0.0000 
 51 H351     9.0880    -3.5440    24.8340 H     1 LIG   0.0000 
 52 H352     9.9400    -2.5410    25.8000 H     1 LIG   0.0000 
 53 H411     7.9420    -5.9670    26.9920 H     1 LIG   0.0000 
 54 H412     7.9700    -5.4190    25.4540 H     1 LIG   0.0000 
 55 H451     7.8150    -1.0860    27.5360 H     1 LIG   0.0000 
 56 H452     6.3790    -1.6830    27.0390 H     1 LIG   0.0000 
 57 H481     6.5940    -0.7220    24.9630 H     1 LIG   0.0000 
 58 H482     7.0250     0.4480    26.0180 H     1 LIG   0.0000 
 59 H52      4.8460     0.0720    21.5530 H     1 LIG   0.0000 
 60 H531     4.0910     0.2090    19.3640 H     1 LIG   0.0000 
 61 H532     4.8120     1.5970    19.8320 H     1 LIG   0.0000 
 62 H533     5.6080     0.5480    18.8650 H     1 LIG   0.0000 
 63 H571     6.0290    -1.6080    19.6210 H     1 LIG   0.0000 
 64 H572     4.6230    -1.8370    20.4190 H     1 LIG   0.0000 
@<TRIPOS>BOND
  1   1   2  1   
  2   1  40  1   
  3   1  41  1   
  4   1  42  1   
  5   2   3  1   
  6   2   4  1   
  7   2  43  1   
  8   3  44  1   
  9   3  45  1   
 10   3  46  1   
 11   4   5  2   
 12   4   6  1   
 13   6   7  1   
 14   6  34  1   
 15   6  47  1   
 16   7   8  1   
 17   7  48  1   
 18   7  49  1   
 19   8   9  ar  
 20   8  14  ar  
 21   9  10  ar  
 22   9  32  1   
 23  10  11  ar  
 24  10  35  1   
 25  11  12  ar  
 26  11  36  1   
 27  12  13  1   
 28  12  14  ar  
 29  14  15  1   
 30  15  16  ar  
 31  15  21  ar  
 32  16  17  ar  
 33  16  37  1   
 34  17  18  1   
 35  17  19  ar  
 36  19  20  ar  
 37  19  38  1   
 38  20  21  ar  
 39  20  39  1   
 40  21  22  1   
 41  22  23  1   
 42  22  31  1   
 43  22  50  1   
 44  23  24  1   
 45  23  51  1   
 46  23  52  1   
 47  24  25  am  
 48  24  29  1   
 49  25  26  2   
 50  25  27  1   
 51  27  28  1   
 52  27  53  1   
 53  27  54  1   
 54  29  30  1   
 55  29  55  1   
 56  29  56  1   
 57  30  31  1   
 58  30  57  1   
 59  30  58  1   
 60  32  33  1   
 61  32  34  1   
 62  32  59  1   
 63  33  60  1   
 64  33  61  1   
 65  33  62  1   
 66  34  63  1   
 67  34  64  1   
@<TRIPOS>SUBSTRUCTURE
  1 LIG  22 GROUP 4 **** **** 0
@<TRIPOS>PROPERTY_DATA
index	|	ligand044
Name	|	BOG-INS-160-1
ChemPlp	|	-93.2831
MM-GBSA Nwat=0	|	-24.4847
STDEV0	|	2.8684
MM-GBSA Nwat=30	|	-74.0912
STDEV30	|	7.1371
MM-GBSA Nwat=60	|	-85.5063
STDEV60	|	7.1409
ST.DEV < 10%	|	Y
RMSD LIG < 2	|	Y
DIST < 5	|	N
DIST < 3.5	|	N

# MOE 2019.01 (io_trps.svl 2018.10)

@<TRIPOS>MOLECULE
ligand243
59 61 1 0 0 
SMALL
NO_CHARGES


@<TRIPOS>ATOM
  1 O1      13.8880     6.3060    21.8670 O.2   1 LIG   0.0000 
  2 C2      13.8070     5.4310    22.6840 C.2   1 LIG   0.0000 
  3 O3      14.8100     5.1980    23.4950 O.3   1 LIG   0.0000 
  4 H4      15.0280     5.8500    24.2210 H     1 LIG   0.0000 
  5 C5      12.5420     4.5940    22.7800 C.3   1 LIG   0.0000 
  6 H6      12.6440     3.7710    22.2210 H     1 LIG   0.0000 
  7 H7      11.7640     5.1270    22.4490 H     1 LIG   0.0000 
  8 C8      12.3060     4.1970    24.2280 C.3   1 LIG   0.0000 
  9 H9      13.0240     3.5670    24.5230 H     1 LIG   0.0000 
 10 H10     12.3210     5.0140    24.8040 H     1 LIG   0.0000 
 11 C11     10.9520     3.5160    24.3520 C.3   1 LIG   0.0000 
 12 H12     10.7920     3.2630    25.3060 H     1 LIG   0.0000 
 13 H13     10.2350     4.1420    24.0480 H     1 LIG   0.0000 
 14 C14     10.9330     2.2660    23.4870 C.ar  1 LIG   0.0000 
 15 C15     12.1080     1.5800    23.1910 C.ar  1 LIG   0.0000 
 16 H16     12.9830     1.9080    23.5480 H     1 LIG   0.0000 
 17 N17     12.0680     0.4780    22.4260 N.ar  1 LIG   0.0000 
 18 C18     10.9150     0.0040    21.9290 C.ar  1 LIG   0.0000 
 19 H19     10.9200    -0.8200    21.3630 H     1 LIG   0.0000 
 20 C20      9.7130     0.6530    22.1940 C.ar  1 LIG   0.0000 
 21 N21      8.4960     0.1820    21.6890 N.am  1 LIG   0.0000 
 22 H22      8.4140    -0.0530    20.7200 H     1 LIG   0.0000 
 23 C23      7.4160     0.0430    22.5210 C.2   1 LIG   0.0000 
 24 O24      7.5150     0.3240    23.6830 O.2   1 LIG   0.0000 
 25 N25      6.2250    -0.4180    22.0260 N.am  1 LIG   0.0000 
 26 H26      5.4370    -0.5200    22.6340 H     1 LIG   0.0000 
 27 C27      6.1100    -0.7470    20.6700 C.ar  1 LIG   0.0000 
 28 C28      6.0550     0.2610    19.7120 C.ar  1 LIG   0.0000 
 29 H29      6.0980     1.2210    19.9870 H     1 LIG   0.0000 
 30 C30      5.9400    -0.0810    18.3690 C.ar  1 LIG   0.0000 
 31 O31      5.8860     0.8960    17.4380 O.3   1 LIG   0.0000 
 32 H32      5.0050     1.2950    17.1840 H     1 LIG   0.0000 
 33 C33      5.8800    -1.4120    17.9710 C.ar  1 LIG   0.0000 
 34 H34      5.7970    -1.6460    17.0020 H     1 LIG   0.0000 
 35 C35      5.9360    -2.4150    18.9340 C.ar  1 LIG   0.0000 
 36 H36      5.8940    -3.3760    18.6590 H     1 LIG   0.0000 
 37 C37      6.0510    -2.0820    20.2800 C.ar  1 LIG   0.0000 
 38 C38      6.1120    -3.1820    21.3270 C.3   1 LIG   0.0000 
 39 C39      7.5150    -3.2000    21.9140 C.3   1 LIG   0.0000 
 40 H40      8.1800    -3.1790    21.1670 H     1 LIG   0.0000 
 41 H41      7.6360    -2.3920    22.4900 H     1 LIG   0.0000 
 42 N42      7.7480    -4.4050    22.7260 N.am  1 LIG   0.0000 
 43 C43      8.5880    -4.3220    23.8420 C.2   1 LIG   0.0000 
 44 O44      8.7890    -5.2950    24.5160 O.2   1 LIG   0.0000 
 45 C45      9.2460    -3.0000    24.2020 C.3   1 LIG   0.0000 
 46 H46     10.2380    -3.0840    24.1040 H     1 LIG   0.0000 
 47 H47      8.9100    -2.2840    23.5900 H     1 LIG   0.0000 
 48 CL48     8.8500    -2.5780    25.8840 Cl    1 LIG   0.0000 
 49 C49      7.1230    -5.6990    22.4080 C.3   1 LIG   0.0000 
 50 H50      7.0290    -6.2300    23.2500 H     1 LIG   0.0000 
 51 H51      7.7080    -6.1930    21.7660 H     1 LIG   0.0000 
 52 C52      5.7470    -5.5180    21.7830 C.3   1 LIG   0.0000 
 53 H53      5.4590    -6.3850    21.3780 H     1 LIG   0.0000 
 54 H54      5.1000    -5.2520    22.4970 H     1 LIG   0.0000 
 55 N55      5.7520    -4.4820    20.7360 N.3   1 LIG   0.0000 
 56 H56      6.4190    -4.7230    20.0320 H     1 LIG   0.0000 
 57 C57      9.7240     1.7980    22.9830 C.ar  1 LIG   0.0000 
 58 H58      8.8720     2.2790    23.1870 H     1 LIG   0.0000 
 59 H59      5.4610    -2.9690    22.0560 H     1 LIG   0.0000 
@<TRIPOS>BOND
  1   1   2  2   
  2   2   3  1   
  3   2   5  1   
  4   3   4  1   
  5   5   6  1   
  6   5   7  1   
  7   5   8  1   
  8   8   9  1   
  9   8  10  1   
 10   8  11  1   
 11  11  12  1   
 12  11  13  1   
 13  11  14  1   
 14  14  15  ar  
 15  14  57  ar  
 16  15  16  1   
 17  15  17  ar  
 18  17  18  ar  
 19  18  19  1   
 20  18  20  ar  
 21  20  21  1   
 22  20  57  ar  
 23  21  22  1   
 24  21  23  am  
 25  23  24  2   
 26  23  25  am  
 27  25  26  1   
 28  25  27  1   
 29  27  28  ar  
 30  27  37  ar  
 31  28  29  1   
 32  28  30  ar  
 33  30  31  1   
 34  30  33  ar  
 35  31  32  1   
 36  33  34  1   
 37  33  35  ar  
 38  35  36  1   
 39  35  37  ar  
 40  37  38  1   
 41  38  39  1   
 42  38  55  1   
 43  38  59  1   
 44  39  40  1   
 45  39  41  1   
 46  39  42  1   
 47  42  43  am  
 48  42  49  1   
 49  43  44  2   
 50  43  45  1   
 51  45  46  1   
 52  45  47  1   
 53  45  48  1   
 54  49  50  1   
 55  49  51  1   
 56  49  52  1   
 57  52  53  1   
 58  52  54  1   
 59  52  55  1   
 60  55  56  1   
 61  57  58  1   
@<TRIPOS>SUBSTRUCTURE
  1 LIG  21 GROUP 4 **** **** 0
@<TRIPOS>PROPERTY_DATA
index	|	ligand243
Name	|	JAN-LUN-04a-1
ChemPlp	|	-95.3935
MM-GBSA Nwat=0	|	-32.1847
STDEV0	|	3.6328
MM-GBSA Nwat=30	|	-71.3605
STDEV30	|	6.2038
MM-GBSA Nwat=60	|	-75.5954
STDEV60	|	5.9548
ST.DEV < 10%	|	Y
RMSD LIG < 2	|	Y
DIST < 5	|	N
DIST < 3.5	|	N

# MOE 2019.01 (io_trps.svl 2018.10)

@<TRIPOS>MOLECULE
ligand125
47 48 1 0 0 
SMALL
NO_CHARGES


@<TRIPOS>ATOM
  1 C1       7.1820    -5.6440    21.0320 C.3   1 LIG   0.0000 
  2 C5       6.4300    -4.3630    21.3560 C.2   1 LIG   0.0000 
  3 O6       5.2300    -4.3650    21.3940 O.2   1 LIG   0.0000 
  4 N7       7.1210    -3.2070    21.6060 N.am  1 LIG   0.0000 
  5 C9       6.3930    -1.9690    21.9200 C.3   1 LIG   0.0000 
  6 C10      7.1230    -1.2180    23.0210 C.2   1 LIG   0.0000 
  7 O11      6.6170    -0.2560    23.5290 O.2   1 LIG   0.0000 
  8 N12      8.3600    -1.6390    23.4340 N.am  1 LIG   0.0000 
  9 C14      9.0660    -0.9120    24.4990 C.3   1 LIG   0.0000 
 10 N15      9.3880    -1.8380    25.5940 N.am  1 LIG   0.0000 
 11 C17      8.4870    -2.8010    25.9640 C.2   1 LIG   0.0000 
 12 O18      7.4340    -2.8880    25.3950 O.2   1 LIG   0.0000 
 13 C19      8.8200    -3.7590    27.0960 C.3   1 LIG   0.0000 
 14 CL22     9.9090    -5.0320    26.4950 Cl    1 LIG   0.0000 
 15 C23     10.3500    -0.3190    23.9420 C.ar  1 LIG   0.0000 
 16 C24     10.6660     1.0120    24.1920 C.ar  1 LIG   0.0000 
 17 C26     11.8450     1.5390    23.6750 C.ar  1 LIG   0.0000 
 18 C28     12.7050     0.7510    22.9160 C.ar  1 LIG   0.0000 
 19 C30     12.3700    -0.5780    22.6780 C.ar  1 LIG   0.0000 
 20 CL31    13.4640    -1.5920    21.7070 Cl    1 LIG   0.0000 
 21 C32     11.1960    -1.1240    23.1850 C.ar  1 LIG   0.0000 
 22 C34      6.3160    -1.0970    20.6770 C.ar  1 LIG   0.0000 
 23 C35      6.5290     0.2730    20.7880 C.ar  1 LIG   0.0000 
 24 C37      6.4600     1.0740    19.6530 C.ar  1 LIG   0.0000 
 25 C39      6.1790     0.4940    18.4200 C.ar  1 LIG   0.0000 
 26 O40      6.1110     1.2680    17.3160 O.3   1 LIG   0.0000 
 27 C42      5.9640    -0.8760    18.3040 C.ar  1 LIG   0.0000 
 28 C44      6.0350    -1.6720    19.4420 C.ar  1 LIG   0.0000 
 29 H24     10.0520     1.5840    24.7360 H     1 LIG   0.0000 
 30 H26     12.0780     2.4950    23.8520 H     1 LIG   0.0000 
 31 H28     13.5520     1.1350    22.5480 H     1 LIG   0.0000 
 32 H32     10.9630    -2.0800    23.0090 H     1 LIG   0.0000 
 33 H35      6.7310     0.6800    21.6780 H     1 LIG   0.0000 
 34 H37      6.6120     2.0600    19.7220 H     1 LIG   0.0000 
 35 H42      5.7620    -1.2830    17.4130 H     1 LIG   0.0000 
 36 H44      5.8840    -2.6590    19.3720 H     1 LIG   0.0000 
 37 H11      8.1660    -5.4640    21.0420 H     1 LIG   0.0000 
 38 H12      6.9630    -6.3410    21.7140 H     1 LIG   0.0000 
 39 H13      6.9120    -5.9680    20.1250 H     1 LIG   0.0000 
 40 H9       5.4680    -2.1940    22.2270 H     1 LIG   0.0000 
 41 H14      8.4820    -0.1770    24.8450 H     1 LIG   0.0000 
 42 H191     9.2690    -3.2580    27.8360 H     1 LIG   0.0000 
 43 H192     7.9780    -4.1750    27.4390 H     1 LIG   0.0000 
 44 H7       8.1200    -3.2050    21.5750 H     1 LIG   0.0000 
 45 H12      8.7820    -2.4400    23.0110 H     1 LIG   0.0000 
 46 H15     10.2660    -1.7660    26.0680 H     1 LIG   0.0000 
 47 H40      5.2240     1.4710    16.9020 H     1 LIG   0.0000 
@<TRIPOS>BOND
  1   1   2  1   
  2   1  37  1   
  3   1  38  1   
  4   1  39  1   
  5   2   3  2   
  6   2   4  am  
  7   4   5  1   
  8   4  44  1   
  9   5   6  1   
 10   5  22  1   
 11   5  40  1   
 12   6   7  2   
 13   6   8  am  
 14   8   9  1   
 15   8  45  1   
 16   9  10  1   
 17   9  15  1   
 18   9  41  1   
 19  10  11  am  
 20  10  46  1   
 21  11  12  2   
 22  11  13  1   
 23  13  14  1   
 24  13  42  1   
 25  13  43  1   
 26  15  16  ar  
 27  15  21  ar  
 28  16  17  ar  
 29  16  29  1   
 30  17  18  ar  
 31  17  30  1   
 32  18  19  ar  
 33  18  31  1   
 34  19  20  1   
 35  19  21  ar  
 36  21  32  1   
 37  22  23  ar  
 38  22  28  ar  
 39  23  24  ar  
 40  23  33  1   
 41  24  25  ar  
 42  24  34  1   
 43  25  26  1   
 44  25  27  ar  
 45  26  47  1   
 46  27  28  ar  
 47  27  35  1   
 48  28  36  1   
@<TRIPOS>SUBSTRUCTURE
  1 LIG   8 GROUP 4 **** **** 0
@<TRIPOS>PROPERTY_DATA
index	|	ligand125
Name	|	DAV-CRI-25b-4
ChemPlp	|	-100.027
MM-GBSA Nwat=0	|	-32.0523
STDEV0	|	3.3223
MM-GBSA Nwat=30	|	-71.1298
STDEV30	|	6.733
MM-GBSA Nwat=60	|	-72.9091
STDEV60	|	7.2235
ST.DEV < 10%	|	Y
RMSD LIG < 2	|	Y
DIST < 5	|	N
DIST < 3.5	|	N

# MOE 2019.01 (io_trps.svl 2018.10)

@<TRIPOS>MOLECULE
ligand463
55 56 1 0 0 
SMALL
NO_CHARGES


@<TRIPOS>ATOM
  1 C1       5.8010    -5.8240    21.6080 C.3   1 LIG   0.0000 
  2 H2       6.3140    -6.2480    22.3540 H     1 LIG   0.0000 
  3 H3       4.8500    -5.6940    21.8880 H     1 LIG   0.0000 
  4 H4       5.8340    -6.4150    20.8020 H     1 LIG   0.0000 
  5 C5       6.4180    -4.4760    21.2720 C.2   1 LIG   0.0000 
  6 O6       5.9480    -3.8020    20.3980 O.2   1 LIG   0.0000 
  7 N7       7.5120    -4.0310    21.9670 N.am  1 LIG   0.0000 
  8 H8       7.9040    -4.5930    22.6950 H     1 LIG   0.0000 
  9 C9       8.1090    -2.7280    21.6420 C.3   1 LIG   0.0000 
 10 C10      7.1080    -1.6240    21.9390 C.3   1 LIG   0.0000 
 11 H11      6.2590    -2.0260    22.2810 H     1 LIG   0.0000 
 12 H12      7.4870    -1.0070    22.6290 H     1 LIG   0.0000 
 13 C13      6.8210    -0.8440    20.6660 C.ar  1 LIG   0.0000 
 14 C14      5.5030    -0.6310    20.2760 C.ar  1 LIG   0.0000 
 15 H15      4.7510    -0.9890    20.8300 H     1 LIG   0.0000 
 16 C16      5.2360     0.0830    19.1130 C.ar  1 LIG   0.0000 
 17 H17      4.2910     0.2410    18.8240 H     1 LIG   0.0000 
 18 C18      6.2920     0.5760    18.3530 C.ar  1 LIG   0.0000 
 19 O19      6.0380     1.2690    17.2230 O.3   1 LIG   0.0000 
 20 H20      5.1170     1.2660    16.8320 H     1 LIG   0.0000 
 21 C21      7.6120     0.3660    18.7390 C.ar  1 LIG   0.0000 
 22 H22      8.3640     0.7240    18.1850 H     1 LIG   0.0000 
 23 C23      7.8740    -0.3480    19.9030 C.ar  1 LIG   0.0000 
 24 H24      8.8180    -0.5060    20.1920 H     1 LIG   0.0000 
 25 C25      9.3580    -2.5190    22.4820 C.2   1 LIG   0.0000 
 26 O26      9.3780    -2.8800    23.6270 O.2   1 LIG   0.0000 
 27 N27     10.4610    -1.9180    21.9340 N.am  1 LIG   0.0000 
 28 H28     10.4440    -1.6170    20.9810 H     1 LIG   0.0000 
 29 C29     11.6680    -1.7160    22.7470 C.3   1 LIG   0.0000 
 30 H30     12.3660    -1.2560    22.1990 H     1 LIG   0.0000 
 31 H31     12.0160    -2.6020    23.0530 H     1 LIG   0.0000 
 32 C32     11.3280    -0.8600    23.9560 C.3   1 LIG   0.0000 
 33 H33     10.4440    -1.1440    24.3270 H     1 LIG   0.0000 
 34 H34     12.0340    -0.9750    24.6550 H     1 LIG   0.0000 
 35 N35     11.2610     0.5500    23.5540 N.3   1 LIG   0.0000 
 36 C36     10.6970     1.2930    24.6930 C.3   1 LIG   0.0000 
 37 H37     11.2800     1.1500    25.4930 H     1 LIG   0.0000 
 38 H38      9.7790     0.9460    24.8830 H     1 LIG   0.0000 
 39 C39     10.6130     2.7840    24.4030 C.3   1 LIG   0.0000 
 40 H40      9.8540     2.9510    23.7740 H     1 LIG   0.0000 
 41 H41     10.4480     3.2730    25.2600 H     1 LIG   0.0000 
 42 N42     11.8560     3.2870    23.7970 N.am  1 LIG   0.0000 
 43 C43     12.2590     4.5990    24.0620 C.2   1 LIG   0.0000 
 44 O44     11.5940     5.2980    24.7750 O.2   1 LIG   0.0000 
 45 C45     13.5400     5.1400    23.4470 C.3   1 LIG   0.0000 
 46 H46     13.7740     6.0120    23.8770 H     1 LIG   0.0000 
 47 H47     14.2820     4.4860    23.5930 H     1 LIG   0.0000 
 48 CL48    13.3010     5.3870    21.7000 Cl    1 LIG   0.0000 
 49 C49     12.7040     2.4600    22.9230 C.3   1 LIG   0.0000 
 50 H50     13.6490     2.7800    22.9890 H     1 LIG   0.0000 
 51 H51     12.3870     2.5520    21.9790 H     1 LIG   0.0000 
 52 C52     12.6460     0.9940    23.3270 C.3   1 LIG   0.0000 
 53 H53     13.0490     0.4410    22.5980 H     1 LIG   0.0000 
 54 H54     13.1690     0.8690    24.1700 H     1 LIG   0.0000 
 55 H55      8.3520    -2.7050    20.6720 H     1 LIG   0.0000 
@<TRIPOS>BOND
  1   1   2  1   
  2   1   3  1   
  3   1   4  1   
  4   1   5  1   
  5   5   6  2   
  6   5   7  am  
  7   7   8  1   
  8   7   9  1   
  9   9  10  1   
 10   9  25  1   
 11   9  55  1   
 12  10  11  1   
 13  10  12  1   
 14  10  13  1   
 15  13  14  ar  
 16  13  23  ar  
 17  14  15  1   
 18  14  16  ar  
 19  16  17  1   
 20  16  18  ar  
 21  18  19  1   
 22  18  21  ar  
 23  19  20  1   
 24  21  22  1   
 25  21  23  ar  
 26  23  24  1   
 27  25  26  2   
 28  25  27  am  
 29  27  28  1   
 30  27  29  1   
 31  29  30  1   
 32  29  31  1   
 33  29  32  1   
 34  32  33  1   
 35  32  34  1   
 36  32  35  1   
 37  35  36  1   
 38  35  52  1   
 39  36  37  1   
 40  36  38  1   
 41  36  39  1   
 42  39  40  1   
 43  39  41  1   
 44  39  42  1   
 45  42  43  am  
 46  42  49  1   
 47  43  44  2   
 48  43  45  1   
 49  45  46  1   
 50  45  47  1   
 51  45  48  1   
 52  49  50  1   
 53  49  51  1   
 54  49  52  1   
 55  52  53  1   
 56  52  54  1   
@<TRIPOS>SUBSTRUCTURE
  1 LIG  27 GROUP 4 **** **** 0
@<TRIPOS>PROPERTY_DATA
index	|	ligand463
Name	|	NIM-UNI-ed9-2
ChemPlp	|	-101.194
MM-GBSA Nwat=0	|	-30.495
STDEV0	|	3.3578
MM-GBSA Nwat=30	|	-70.2187
STDEV30	|	5.99
MM-GBSA Nwat=60	|	-74.3325
STDEV60	|	6.1797
ST.DEV < 10%	|	Y
RMSD LIG < 2	|	Y
DIST < 5	|	N
DIST < 3.5	|	N

# MOE 2019.01 (io_trps.svl 2018.10)

@<TRIPOS>MOLECULE
ligand370
61 63 1 0 0 
SMALL
USER_CHARGES


@<TRIPOS>ATOM
  1 C1      12.9540    -1.4060    22.2950 C.3   1 LIG   0.0000 
  2 O5      12.6210    -0.2120    22.9880 O.3   1 LIG   0.0000 
  3 C6      11.7850     0.5930    22.1690 C.3   1 LIG   0.0000 
  4 C7      10.4590    -0.0850    21.8840 C.3   1 LIG   0.0000 
  5 N10      9.4880     1.0100    21.8200 N.am  1 LIG   0.0000 
  6 C11      8.1140     0.8660    21.5890 C.2   1 LIG   0.0000 
  7 O12      7.3260     1.4720    22.2620 O.2   1 LIG   0.0000 
  8 C13      7.6200    -0.0560    20.4860 C.3   1 LIG   0.0000 
  9 C16      6.1440    -0.3510    20.6950 C.3   1 LIG   0.0000 
 10 N19      5.8010    -1.6220    20.0410 N.pl3 1 LIG   0.0000 
 11 C21      6.2300    -2.8330    20.5970 C.ar  1 LIG   0.0000 
 12 C22      7.1230    -2.7860    21.6630 C.ar  1 LIG   0.0000 
 13 C24      7.5580    -3.9810    22.2270 C.ar  1 LIG   0.0000 
 14 C26      7.1020    -5.1960    21.7280 C.ar  1 LIG   0.0000 
 15 C27      7.5840    -6.4960    22.3510 C.1   1 LIG   0.0000 
 16 N28      7.9460    -7.4700    22.8190 N.1   1 LIG   0.0000 
 17 C29      6.2100    -5.1740    20.6600 C.ar  1 LIG   0.0000 
 18 N31      5.8000    -4.0140    20.1280 N.ar  1 LIG   0.0000 
 19 C32     10.1820     2.2760    22.0440 C.3   1 LIG   0.0000 
 20 C35     11.3770     1.8660    22.8790 C.3   1 LIG   0.0000 
 21 C36     12.4920     2.8980    22.8520 C.3   1 LIG   0.0000 
 22 N39     11.9750     4.1910    23.3220 N.4   1 LIG   1.0000 
 23 C41     11.4460     3.9740    24.6790 C.3   1 LIG   0.0000 
 24 C44     10.9210     5.2620    25.2960 C.3   1 LIG   0.0000 
 25 N47     11.8570     6.3790    25.0930 N.am  1 LIG   0.0000 
 26 C48     11.9370     7.3700    26.0780 C.2   1 LIG   0.0000 
 27 O49     12.6910     8.2930    25.9410 O.2   1 LIG   0.0000 
 28 C50     11.0690     7.2770    27.3220 C.3   1 LIG   0.0000 
 29 CL53    12.0980     6.9720    28.7420 Cl    1 LIG   0.0000 
 30 C54     12.7180     6.4860    23.9040 C.3   1 LIG   0.0000 
 31 C57     13.1190     5.1180    23.3740 C.3   1 LIG   0.0000 
 32 H22      7.4470    -1.9090    22.0170 H     1 LIG   0.0000 
 33 H24      8.2000    -3.9660    22.9930 H     1 LIG   0.0000 
 34 H29      5.8680    -6.0370    20.2850 H     1 LIG   0.0000 
 35 H11     13.5430    -1.9720    22.8720 H     1 LIG   0.0000 
 36 H12     12.1180    -1.9090    22.0770 H     1 LIG   0.0000 
 37 H13     13.4360    -1.1770    21.4490 H     1 LIG   0.0000 
 38 H6      12.2510     0.8120    21.3110 H     1 LIG   0.0000 
 39 H71     10.4940    -0.5770    21.0130 H     1 LIG   0.0000 
 40 H72     10.2240    -0.7230    22.6170 H     1 LIG   0.0000 
 41 H131     8.1380    -0.9110    20.5100 H     1 LIG   0.0000 
 42 H132     7.7500     0.3870    19.5990 H     1 LIG   0.0000 
 43 H161     5.9530    -0.4180    21.6740 H     1 LIG   0.0000 
 44 H162     5.5970     0.3860    20.2980 H     1 LIG   0.0000 
 45 H321     9.6010     2.9220    22.5400 H     1 LIG   0.0000 
 46 H322    10.4720     2.6850    21.1790 H     1 LIG   0.0000 
 47 H35     11.0990     1.6720    23.8200 H     1 LIG   0.0000 
 48 H361    13.2370     2.6000    23.4480 H     1 LIG   0.0000 
 49 H362    12.8330     2.9960    21.9160 H     1 LIG   0.0000 
 50 H39     11.2630     4.5360    22.7110 H     1 LIG   0.0000 
 51 H411    12.1780     3.6140    25.2580 H     1 LIG   0.0000 
 52 H412    10.7000     3.3100    24.6330 H     1 LIG   0.0000 
 53 H441    10.0450     5.4910    24.8720 H     1 LIG   0.0000 
 54 H442    10.7900     5.1220    26.2770 H     1 LIG   0.0000 
 55 H501    10.5730     8.1360    27.4480 H     1 LIG   0.0000 
 56 H502    10.4150     6.5280    27.2170 H     1 LIG   0.0000 
 57 H541    13.5440     6.9950    24.1470 H     1 LIG   0.0000 
 58 H542    12.2220     6.9780    23.1880 H     1 LIG   0.0000 
 59 H571    13.4900     5.2240    22.4520 H     1 LIG   0.0000 
 60 H572    13.8200     4.7320    23.9740 H     1 LIG   0.0000 
 61 H19      5.2620    -1.6220    19.1990 H     1 LIG   0.0000 
@<TRIPOS>BOND
  1   1   2  1   
  2   1  35  1   
  3   1  36  1   
  4   1  37  1   
  5   2   3  1   
  6   3   4  1   
  7   3  20  1   
  8   3  38  1   
  9   4   5  1   
 10   4  39  1   
 11   4  40  1   
 12   5   6  am  
 13   5  19  1   
 14   6   7  2   
 15   6   8  1   
 16   8   9  1   
 17   8  41  1   
 18   8  42  1   
 19   9  10  1   
 20   9  43  1   
 21   9  44  1   
 22  10  11  1   
 23  10  61  1   
 24  11  12  ar  
 25  11  18  ar  
 26  12  13  ar  
 27  12  32  1   
 28  13  14  ar  
 29  13  33  1   
 30  14  15  1   
 31  14  17  ar  
 32  15  16  3   
 33  17  18  ar  
 34  17  34  1   
 35  19  20  1   
 36  19  45  1   
 37  19  46  1   
 38  20  21  1   
 39  20  47  1   
 40  21  22  1   
 41  21  48  1   
 42  21  49  1   
 43  22  23  1   
 44  22  31  1   
 45  22  50  1   
 46  23  24  1   
 47  23  51  1   
 48  23  52  1   
 49  24  25  1   
 50  24  53  1   
 51  24  54  1   
 52  25  26  am  
 53  25  30  1   
 54  26  27  2   
 55  26  28  1   
 56  28  29  1   
 57  28  55  1   
 58  28  56  1   
 59  30  31  1   
 60  30  57  1   
 61  30  58  1   
 62  31  59  1   
 63  31  60  1   
@<TRIPOS>SUBSTRUCTURE
  1 LIG   5 GROUP 4 **** **** 0
@<TRIPOS>PROPERTY_DATA
index	|	ligand370
Name	|	MAK-UNK-af8-26
ChemPlp	|	-94.6241
MM-GBSA Nwat=0	|	-39.3621
STDEV0	|	4.1363
MM-GBSA Nwat=30	|	-70.0216
STDEV30	|	6.0261
MM-GBSA Nwat=60	|	-74.2441
STDEV60	|	5.9173
ST.DEV < 10%	|	Y
RMSD LIG < 2	|	Y
DIST < 5	|	N
DIST < 3.5	|	N

# MOE 2019.01 (io_trps.svl 2018.10)

@<TRIPOS>MOLECULE
ligand224
62 66 1 0 0 
SMALL
USER_CHARGES


@<TRIPOS>ATOM
  1 C1       5.3380     7.9860    21.0980 C.2   1 LIG   0.0000 
  2 C4       6.4770     7.6300    21.6150 C.2   1 LIG   0.0000 
  3 C6       6.6230     6.2640    22.2640 C.2   1 LIG   0.0000 
  4 O7       5.6830     5.5200    22.3160 O.2   1 LIG   0.0000 
  5 N8       7.8550     5.8720    22.8010 N.am  1 LIG   0.0000 
  6 C9       8.1450     4.5830    23.4420 C.3   1 LIG   0.0000 
  7 C12      9.2430     4.8660    24.4480 C.3   1 LIG   0.0000 
  8 C13     10.3010     3.8100    24.2390 C.3   1 LIG   0.0000 
  9 N16     11.0680     4.3120    23.0960 N.4   1 LIG   1.0000 
 10 C17     12.3410     3.5860    22.9720 C.3   1 LIG   0.0000 
 11 C20     12.0620     2.1090    22.7500 C.ar  1 LIG   0.0000 
 12 C21     12.9900     1.1760    23.1990 C.ar  1 LIG   0.0000 
 13 C23     12.7420    -0.1790    22.9990 C.ar  1 LIG   0.0000 
 14 C25     11.5710    -0.5690    22.3570 C.ar  1 LIG   0.0000 
 15 C27     10.6390     0.3620    21.9080 C.ar  1 LIG   0.0000 
 16 C28      9.3940     0.3290    21.2400 C.2   1 LIG   0.0000 
 17 C29      8.6670    -0.9270    20.7890 C.3   1 LIG   0.0000 
 18 C32      7.7900    -1.4390    21.9200 C.3   1 LIG   0.0000 
 19 N35      7.0590    -2.6320    21.4720 N.am  1 LIG   0.0000 
 20 C37      6.0980    -2.5230    20.5020 C.2   1 LIG   0.0000 
 21 O38      5.5010    -3.4970    20.1360 O.2   1 LIG   0.0000 
 22 C39      5.8030    -1.2310    19.9180 C.2   1 LIG   0.0000 
 23 C40      6.1000    -0.8590    18.6400 C.2   1 LIG   0.0000 
 24 C42      5.6390     0.4700    18.4920 C.2   1 LIG   0.0000 
 25 C44      5.0820     0.8530    19.6790 C.2   1 LIG   0.0000 
 26 N46      5.1850    -0.1930    20.5520 N.pl3 1 LIG   0.0000 
 27 C48      8.9450     1.6060    21.0640 C.2   1 LIG   0.0000 
 28 N50      9.8750     2.4470    21.6000 N.pl3 1 LIG   0.0000 
 29 C52     10.8980     1.6990    22.1110 C.ar  1 LIG   0.0000 
 30 C53     11.3060     5.6770    23.5740 C.3   1 LIG   0.0000 
 31 C56      9.9190     6.1360    23.9690 C.3   1 LIG   0.0000 
 32 C57      9.0890     6.6680    22.8130 C.3   1 LIG   0.0000 
 33 H21     13.8260     1.4740    23.6590 H     1 LIG   0.0000 
 34 H23     13.3980    -0.8650    23.3140 H     1 LIG   0.0000 
 35 H25     11.3940    -1.5430    22.2150 H     1 LIG   0.0000 
 36 H48      8.0890     1.8760    20.6230 H     1 LIG   0.0000 
 37 H50      9.8190     3.4450    21.6170 H     1 LIG   0.0000 
 38 H40      6.5540    -1.4160    17.9440 H     1 LIG   0.0000 
 39 H42      5.7080     1.0290    17.6660 H     1 LIG   0.0000 
 40 H44      4.6720     1.7440    19.8750 H     1 LIG   0.0000 
 41 H46      4.8600    -0.1970    21.4980 H     1 LIG   0.0000 
 42 H91      8.4560     3.9180    22.7630 H     1 LIG   0.0000 
 43 H92      7.3300     4.2320    23.9040 H     1 LIG   0.0000 
 44 H12      8.9150     4.9200    25.3920 H     1 LIG   0.0000 
 45 H131    10.8820     3.7210    25.0480 H     1 LIG   0.0000 
 46 H132     9.8850     2.9250    24.0280 H     1 LIG   0.0000 
 47 H16     10.5390     4.2960    22.2480 H     1 LIG   0.0000 
 48 H171    12.8750     3.7030    23.8090 H     1 LIG   0.0000 
 49 H172    12.8570     3.9480    22.1950 H     1 LIG   0.0000 
 50 H291     9.3350    -1.6280    20.5420 H     1 LIG   0.0000 
 51 H292     8.0970    -0.7150    19.9950 H     1 LIG   0.0000 
 52 H321     8.3630    -1.6740    22.7060 H     1 LIG   0.0000 
 53 H322     7.1380    -0.7280    22.1850 H     1 LIG   0.0000 
 54 H531    11.6840     6.2520    22.8480 H     1 LIG   0.0000 
 55 H532    11.9250     5.6810    24.3590 H     1 LIG   0.0000 
 56 H56      9.9670     6.8100    24.7070 H     1 LIG   0.0000 
 57 H571     8.8780     7.6350    22.9530 H     1 LIG   0.0000 
 58 H572     9.5830     6.5560    21.9500 H     1 LIG   0.0000 
 59 H11      5.2420     8.8850    20.6710 H     1 LIG   0.0000 
 60 H12      4.5590     7.3600    21.1270 H     1 LIG   0.0000 
 61 H4       7.2560     8.2560    21.5860 H     1 LIG   0.0000 
 62 H35      7.2630    -3.5250    21.8750 H     1 LIG   0.0000 
@<TRIPOS>BOND
  1   1   2  2   
  2   1  59  1   
  3   1  60  1   
  4   2   3  1   
  5   2  61  1   
  6   3   4  2   
  7   3   5  am  
  8   5   6  1   
  9   5  32  1   
 10   6   7  1   
 11   6  42  1   
 12   6  43  1   
 13   7   8  1   
 14   7  31  1   
 15   7  44  1   
 16   8   9  1   
 17   8  45  1   
 18   8  46  1   
 19   9  10  1   
 20   9  30  1   
 21   9  47  1   
 22  10  11  1   
 23  10  48  1   
 24  10  49  1   
 25  11  12  ar  
 26  11  29  ar  
 27  12  13  ar  
 28  12  33  1   
 29  13  14  ar  
 30  13  34  1   
 31  14  15  ar  
 32  14  35  1   
 33  15  16  1   
 34  15  29  ar  
 35  16  17  1   
 36  16  27  2   
 37  17  18  1   
 38  17  50  1   
 39  17  51  1   
 40  18  19  1   
 41  18  52  1   
 42  18  53  1   
 43  19  20  am  
 44  19  62  1   
 45  20  21  2   
 46  20  22  1   
 47  22  23  2   
 48  22  26  1   
 49  23  24  1   
 50  23  38  1   
 51  24  25  2   
 52  24  39  1   
 53  25  26  1   
 54  25  40  1   
 55  26  41  1   
 56  27  28  1   
 57  27  36  1   
 58  28  29  1   
 59  28  37  1   
 60  30  31  1   
 61  30  54  1   
 62  30  55  1   
 63  31  32  1   
 64  31  56  1   
 65  32  57  1   
 66  32  58  1   
@<TRIPOS>SUBSTRUCTURE
  1 LIG  27 GROUP 4 **** **** 0
@<TRIPOS>PROPERTY_DATA
index	|	ligand224
Name	|	JAN-GHE-641-4
ChemPlp	|	-103.973
MM-GBSA Nwat=0	|	-29.5143
STDEV0	|	4.1299
MM-GBSA Nwat=30	|	-68.6273
STDEV30	|	5.6434
MM-GBSA Nwat=60	|	-78.6272
STDEV60	|	5.8602
ST.DEV < 10%	|	Y
RMSD LIG < 2	|	Y
DIST < 5	|	N
DIST < 3.5	|	N

# MOE 2019.01 (io_trps.svl 2018.10)

@<TRIPOS>MOLECULE
ligand091
52 54 1 0 0 
SMALL
USER_CHARGES


@<TRIPOS>ATOM
  1 C1      12.8050     5.2440    21.2350 C.3   1 LIG   0.0000 
  2 C5      13.5050     6.0630    22.3080 C.2   1 LIG   0.0000 
  3 O6      14.2000     6.9910    21.9970 O.2   1 LIG   0.0000 
  4 N7      13.3430     5.7420    23.6300 N.am  1 LIG   0.0000 
  5 C9      12.4920     4.6050    24.0110 C.3   1 LIG   0.0000 
  6 C12     13.1180     3.3140    23.5100 C.3   1 LIG   0.0000 
  7 C15     12.2210     2.1420    23.8740 C.2   1 LIG   0.0000 
  8 C16     11.1460     2.1990    24.7120 C.2   1 LIG   0.0000 
  9 N18     10.6060     0.9470    24.7800 N.pl3 1 LIG   0.0000 
 10 C20     11.3380     0.1070    23.9890 C.ar  1 LIG   0.0000 
 11 C21     11.1570    -1.2530    23.7550 C.ar  1 LIG   0.0000 
 12 C22     10.0240    -2.0270    24.4090 C.3   1 LIG   0.0000 
 13 N25      9.4820    -3.0030    23.4520 N.4   1 LIG   1.0000 
 14 C26      8.5290    -3.8470    24.1920 C.3   1 LIG   0.0000 
 15 C29      7.8620    -4.8750    23.2910 C.3   1 LIG   0.0000 
 16 N32      7.4100    -4.2710    22.0270 N.am  1 LIG   0.0000 
 17 C33      6.2560    -4.7810    21.4190 C.2   1 LIG   0.0000 
 18 O34      5.8630    -4.3090    20.3880 O.2   1 LIG   0.0000 
 19 C35      5.5020    -5.9320    22.0650 C.3   1 LIG   0.0000 
 20 CL38     4.2830    -5.2860    23.1900 Cl    1 LIG   0.0000 
 21 C39      8.1140    -3.1480    21.3880 C.3   1 LIG   0.0000 
 22 C42      8.7710    -2.2380    22.4150 C.3   1 LIG   0.0000 
 23 C45     12.0280    -1.9290    22.9080 C.ar  1 LIG   0.0000 
 24 C47     13.0740    -1.2450    22.2960 C.ar  1 LIG   0.0000 
 25 F48     13.8950    -1.9150    21.4920 F     1 LIG   0.0000 
 26 C49     13.2200     0.1160    22.5550 C.ar  1 LIG   0.0000 
 27 C51     12.3620     0.8180    23.4000 C.ar  1 LIG   0.0000 
 28 H16     10.8120     3.0110    25.1900 H     1 LIG   0.0000 
 29 H18      9.8060     0.6870    25.3200 H     1 LIG   0.0000 
 30 H45     11.9030    -2.9070    22.7380 H     1 LIG   0.0000 
 31 H49     13.9710     0.6100    22.1160 H     1 LIG   0.0000 
 32 H11     12.2720     4.5160    21.6660 H     1 LIG   0.0000 
 33 H12     12.1960     5.8370    20.7080 H     1 LIG   0.0000 
 34 H13     13.4880     4.8410    20.6250 H     1 LIG   0.0000 
 35 H91     11.5860     4.7160    23.6040 H     1 LIG   0.0000 
 36 H92     12.4080     4.5710    25.0070 H     1 LIG   0.0000 
 37 H121    13.2230     3.3570    22.5170 H     1 LIG   0.0000 
 38 H122    14.0150     3.1910    23.9350 H     1 LIG   0.0000 
 39 H221    10.3700    -2.5080    25.2150 H     1 LIG   0.0000 
 40 H222     9.3020    -1.3930    24.6830 H     1 LIG   0.0000 
 41 H25     10.2130    -3.5560    23.0520 H     1 LIG   0.0000 
 42 H261     7.8240    -3.2630    24.5940 H     1 LIG   0.0000 
 43 H262     9.0190    -4.3260    24.9210 H     1 LIG   0.0000 
 44 H291     8.5170    -5.6020    23.0870 H     1 LIG   0.0000 
 45 H292     7.0720    -5.2610    23.7670 H     1 LIG   0.0000 
 46 H351     5.0480    -6.4720    21.3560 H     1 LIG   0.0000 
 47 H352     6.1440    -6.5120    22.5660 H     1 LIG   0.0000 
 48 H391     7.4570    -2.6150    20.8550 H     1 LIG   0.0000 
 49 H392     8.8190    -3.5120    20.7790 H     1 LIG   0.0000 
 50 H421     9.4240    -1.6420    21.9480 H     1 LIG   0.0000 
 51 H422     8.0650    -1.6810    22.8510 H     1 LIG   0.0000 
 52 H7      13.8030     6.2800    24.3350 H     1 LIG   0.0000 
@<TRIPOS>BOND
  1   1   2  1   
  2   1  32  1   
  3   1  33  1   
  4   1  34  1   
  5   2   3  2   
  6   2   4  am  
  7   4   5  1   
  8   4  52  1   
  9   5   6  1   
 10   5  35  1   
 11   5  36  1   
 12   6   7  1   
 13   6  37  1   
 14   6  38  1   
 15   7   8  2   
 16   7  27  1   
 17   8   9  1   
 18   8  28  1   
 19   9  10  1   
 20   9  29  1   
 21  10  11  ar  
 22  10  27  ar  
 23  11  12  1   
 24  11  23  ar  
 25  12  13  1   
 26  12  39  1   
 27  12  40  1   
 28  13  14  1   
 29  13  22  1   
 30  13  41  1   
 31  14  15  1   
 32  14  42  1   
 33  14  43  1   
 34  15  16  1   
 35  15  44  1   
 36  15  45  1   
 37  16  17  am  
 38  16  21  1   
 39  17  18  2   
 40  17  19  1   
 41  19  20  1   
 42  19  46  1   
 43  19  47  1   
 44  21  22  1   
 45  21  48  1   
 46  21  49  1   
 47  22  50  1   
 48  22  51  1   
 49  23  24  ar  
 50  23  30  1   
 51  24  25  1   
 52  24  26  ar  
 53  26  27  ar  
 54  26  31  1   
@<TRIPOS>SUBSTRUCTURE
  1 LIG  11 GROUP 4 **** **** 0
@<TRIPOS>PROPERTY_DATA
index	|	ligand091
Name	|	DAR-DIA-fb2-11
ChemPlp	|	-98.067
MM-GBSA Nwat=0	|	-31.0721
STDEV0	|	3.1719
MM-GBSA Nwat=30	|	-68.2681
STDEV30	|	4.9118
MM-GBSA Nwat=60	|	-70.9356
STDEV60	|	5.4416
ST.DEV < 10%	|	Y
RMSD LIG < 2	|	Y
DIST < 5	|	N
DIST < 3.5	|	N

# MOE 2019.01 (io_trps.svl 2018.10)

@<TRIPOS>MOLECULE
ligand429
52 54 1 0 0 
SMALL
USER_CHARGES


@<TRIPOS>ATOM
  1 C1      12.8020     5.2490    21.2440 C.3   1 LIG   0.0000 
  2 C5      13.5070     6.0710    22.3110 C.2   1 LIG   0.0000 
  3 O6      14.2000     6.9980    21.9950 O.2   1 LIG   0.0000 
  4 N7      13.3520     5.7520    23.6340 N.am  1 LIG   0.0000 
  5 C9      12.5030     4.6160    24.0220 C.3   1 LIG   0.0000 
  6 C12     13.1270     3.3240    23.5210 C.3   1 LIG   0.0000 
  7 C15     12.2260     2.1530    23.8810 C.2   1 LIG   0.0000 
  8 C16     11.1520     2.2100    24.7200 C.2   1 LIG   0.0000 
  9 N18     10.6080     0.9600    24.7830 N.pl3 1 LIG   0.0000 
 10 C20     11.3360     0.1210    23.9870 C.ar  1 LIG   0.0000 
 11 C21     11.1500    -1.2370    23.7480 C.ar  1 LIG   0.0000 
 12 C22     10.0150    -2.0100    24.3990 C.3   1 LIG   0.0000 
 13 N25      9.4720    -2.9840    23.4410 N.4   1 LIG   1.0000 
 14 C26      8.5310    -3.8390    24.1830 C.3   1 LIG   0.0000 
 15 C29      7.8630    -4.8660    23.2800 C.3   1 LIG   0.0000 
 16 N32      7.3960    -4.2570    22.0250 N.am  1 LIG   0.0000 
 17 C33      6.2410    -4.7710    21.4230 C.2   1 LIG   0.0000 
 18 O34      5.8360    -4.2960    20.3980 O.2   1 LIG   0.0000 
 19 C35      5.5010    -5.9320    22.0680 C.3   1 LIG   0.0000 
 20 CL38     4.2700    -5.3010    23.1880 Cl    1 LIG   0.0000 
 21 C39      8.0870    -3.1250    21.3860 C.3   1 LIG   0.0000 
 22 C42      8.7460    -2.2170    22.4140 C.3   1 LIG   0.0000 
 23 C45     12.0170    -1.9120    22.8950 C.ar  1 LIG   0.0000 
 24 C47     13.0640    -1.2300    22.2850 C.ar  1 LIG   0.0000 
 25 F48     13.8810    -1.8980    21.4770 F     1 LIG   0.0000 
 26 C49     13.2150     0.1300    22.5500 C.ar  1 LIG   0.0000 
 27 C51     12.3620     0.8310    23.4000 C.ar  1 LIG   0.0000 
 28 H16     10.8230     3.0220    25.2030 H     1 LIG   0.0000 
 29 H18      9.8080     0.7010    25.3230 H     1 LIG   0.0000 
 30 H45     11.8880    -2.8890    22.7210 H     1 LIG   0.0000 
 31 H49     13.9680     0.6230    22.1130 H     1 LIG   0.0000 
 32 H11     12.2720     4.5220    21.6790 H     1 LIG   0.0000 
 33 H12     12.1900     5.8400    20.7190 H     1 LIG   0.0000 
 34 H13     13.4820     4.8450    20.6310 H     1 LIG   0.0000 
 35 H91     11.5950     4.7260    23.6190 H     1 LIG   0.0000 
 36 H92     12.4240     4.5840    25.0190 H     1 LIG   0.0000 
 37 H121    13.2340     3.3680    22.5280 H     1 LIG   0.0000 
 38 H122    14.0220     3.1980    23.9480 H     1 LIG   0.0000 
 39 H221    10.3590    -2.4920    25.2050 H     1 LIG   0.0000 
 40 H222     9.2930    -1.3750    24.6740 H     1 LIG   0.0000 
 41 H25     10.2030    -3.5280    23.0310 H     1 LIG   0.0000 
 42 H261     7.8250    -3.2620    24.5940 H     1 LIG   0.0000 
 43 H262     9.0300    -4.3190    24.9040 H     1 LIG   0.0000 
 44 H291     8.5220    -5.5870    23.0660 H     1 LIG   0.0000 
 45 H292     7.0800    -5.2600    23.7610 H     1 LIG   0.0000 
 46 H351     5.0570    -6.4790    21.3580 H     1 LIG   0.0000 
 47 H352     6.1490    -6.5020    22.5720 H     1 LIG   0.0000 
 48 H391     7.4220    -2.5930    20.8630 H     1 LIG   0.0000 
 49 H392     8.7900    -3.4800    20.7700 H     1 LIG   0.0000 
 50 H421     9.3920    -1.6140    21.9460 H     1 LIG   0.0000 
 51 H422     8.0400    -1.6680    22.8600 H     1 LIG   0.0000 
 52 H7      13.8150     6.2920    24.3370 H     1 LIG   0.0000 
@<TRIPOS>BOND
  1   1   2  1   
  2   1  32  1   
  3   1  33  1   
  4   1  34  1   
  5   2   3  2   
  6   2   4  am  
  7   4   5  1   
  8   4  52  1   
  9   5   6  1   
 10   5  35  1   
 11   5  36  1   
 12   6   7  1   
 13   6  37  1   
 14   6  38  1   
 15   7   8  2   
 16   7  27  1   
 17   8   9  1   
 18   8  28  1   
 19   9  10  1   
 20   9  29  1   
 21  10  11  ar  
 22  10  27  ar  
 23  11  12  1   
 24  11  23  ar  
 25  12  13  1   
 26  12  39  1   
 27  12  40  1   
 28  13  14  1   
 29  13  22  1   
 30  13  41  1   
 31  14  15  1   
 32  14  42  1   
 33  14  43  1   
 34  15  16  1   
 35  15  44  1   
 36  15  45  1   
 37  16  17  am  
 38  16  21  1   
 39  17  18  2   
 40  17  19  1   
 41  19  20  1   
 42  19  46  1   
 43  19  47  1   
 44  21  22  1   
 45  21  48  1   
 46  21  49  1   
 47  22  50  1   
 48  22  51  1   
 49  23  24  ar  
 50  23  30  1   
 51  24  25  1   
 52  24  26  ar  
 53  26  27  ar  
 54  26  31  1   
@<TRIPOS>SUBSTRUCTURE
  1 LIG  11 GROUP 4 **** **** 0
@<TRIPOS>PROPERTY_DATA
index	|	ligand429
Name	|	NAU-LAT-f72-1
ChemPlp	|	-98.0623
MM-GBSA Nwat=0	|	-30.8481
STDEV0	|	4.0316
MM-GBSA Nwat=30	|	-67.4971
STDEV30	|	6.6197
MM-GBSA Nwat=60	|	-73.9653
STDEV60	|	6.3435
ST.DEV < 10%	|	Y
RMSD LIG < 2	|	Y
DIST < 5	|	N
DIST < 3.5	|	N

# MOE 2019.01 (io_trps.svl 2018.10)

@<TRIPOS>MOLECULE
ligand462
52 53 1 0 0 
SMALL
NO_CHARGES


@<TRIPOS>ATOM
  1 C1       6.2730    -6.3500    22.1810 C.3   1 LIG   0.0000 
  2 H2       6.9510    -6.6220    22.8640 H     1 LIG   0.0000 
  3 H3       5.3620    -6.3590    22.5930 H     1 LIG   0.0000 
  4 H4       6.2970    -6.9910    21.4130 H     1 LIG   0.0000 
  5 C5       6.5900    -4.9500    21.6820 C.2   1 LIG   0.0000 
  6 O6       5.8910    -4.4350    20.8530 O.2   1 LIG   0.0000 
  7 N7       7.6730    -4.2740    22.1800 N.am  1 LIG   0.0000 
  8 H8       8.2560    -4.7030    22.8700 H     1 LIG   0.0000 
  9 C9       7.9800    -2.9200    21.6980 C.3   1 LIG   0.0000 
 10 C10      6.7640    -2.0280    21.8850 C.3   1 LIG   0.0000 
 11 H11      5.9500    -2.5960    22.0080 H     1 LIG   0.0000 
 12 H12      6.8940    -1.4520    22.6920 H     1 LIG   0.0000 
 13 C13      6.5870    -1.1480    20.6580 C.ar  1 LIG   0.0000 
 14 C14      5.8500    -1.6210    19.5770 C.ar  1 LIG   0.0000 
 15 H15      5.4410    -2.5330    19.6080 H     1 LIG   0.0000 
 16 C16      5.6850    -0.8190    18.4530 C.ar  1 LIG   0.0000 
 17 H17      5.1580    -1.1500    17.6710 H     1 LIG   0.0000 
 18 C18      6.2600     0.4480    18.4240 C.ar  1 LIG   0.0000 
 19 O19      6.1020     1.2300    17.3350 O.3   1 LIG   0.0000 
 20 H20      5.1840     1.4320    16.9940 H     1 LIG   0.0000 
 21 C21      6.9980     0.9260    19.5030 C.ar  1 LIG   0.0000 
 22 H22      7.4070     1.8370    19.4720 H     1 LIG   0.0000 
 23 C23      7.1590     0.1200    20.6250 C.ar  1 LIG   0.0000 
 24 H24      7.6860     0.4510    21.4070 H     1 LIG   0.0000 
 25 C25      9.1500    -2.3540    22.4860 C.2   1 LIG   0.0000 
 26 O26      9.0510    -2.1910    23.6710 O.2   1 LIG   0.0000 
 27 N27     10.3160    -2.0300    21.8440 N.am  1 LIG   0.0000 
 28 H28     10.3980    -2.1660    20.8570 H     1 LIG   0.0000 
 29 C29     11.4470    -1.4830    22.6070 C.3   1 LIG   0.0000 
 30 H30     11.2590    -1.5640    23.5860 H     1 LIG   0.0000 
 31 H31     12.2780    -1.9930    22.3840 H     1 LIG   0.0000 
 32 N32     11.6320    -0.0680    22.2600 N.3   1 LIG   0.0000 
 33 C33     10.3710     0.6190    22.5800 C.3   1 LIG   0.0000 
 34 H34     10.1670     0.4870    23.5500 H     1 LIG   0.0000 
 35 H35      9.6370     0.2240    22.0280 H     1 LIG   0.0000 
 36 C36     10.4570     2.1110    22.2940 C.3   1 LIG   0.0000 
 37 H37     10.4150     2.2550    21.3050 H     1 LIG   0.0000 
 38 H38      9.6840     2.5710    22.7300 H     1 LIG   0.0000 
 39 N39     11.7090     2.6880    22.8080 N.am  1 LIG   0.0000 
 40 C40     11.7130     4.0120    23.2580 C.2   1 LIG   0.0000 
 41 O41     10.7050     4.6610    23.2210 O.2   1 LIG   0.0000 
 42 C42     12.9950     4.6290    23.7940 C.3   1 LIG   0.0000 
 43 H43     12.7990     5.1170    24.6450 H     1 LIG   0.0000 
 44 H44     13.6640     3.9070    23.9700 H     1 LIG   0.0000 
 45 CL45    13.6520     5.7680    22.5940 Cl    1 LIG   0.0000 
 46 C46     12.9650     1.9240    22.8790 C.3   1 LIG   0.0000 
 47 H47     13.5270     2.2880    23.6220 H     1 LIG   0.0000 
 48 H48     13.4550     2.0220    22.0120 H     1 LIG   0.0000 
 49 C49     12.6980     0.4480    23.1340 C.3   1 LIG   0.0000 
 50 H50     13.5370    -0.0680    22.9620 H     1 LIG   0.0000 
 51 H51     12.4220     0.3290    24.0880 H     1 LIG   0.0000 
 52 H52      8.2190    -2.9580    20.7270 H     1 LIG   0.0000 
@<TRIPOS>BOND
  1   1   2  1   
  2   1   3  1   
  3   1   4  1   
  4   1   5  1   
  5   5   6  2   
  6   5   7  am  
  7   7   8  1   
  8   7   9  1   
  9   9  10  1   
 10   9  25  1   
 11   9  52  1   
 12  10  11  1   
 13  10  12  1   
 14  10  13  1   
 15  13  14  ar  
 16  13  23  ar  
 17  14  15  1   
 18  14  16  ar  
 19  16  17  1   
 20  16  18  ar  
 21  18  19  1   
 22  18  21  ar  
 23  19  20  1   
 24  21  22  1   
 25  21  23  ar  
 26  23  24  1   
 27  25  26  2   
 28  25  27  am  
 29  27  28  1   
 30  27  29  1   
 31  29  30  1   
 32  29  31  1   
 33  29  32  1   
 34  32  33  1   
 35  32  49  1   
 36  33  34  1   
 37  33  35  1   
 38  33  36  1   
 39  36  37  1   
 40  36  38  1   
 41  36  39  1   
 42  39  40  am  
 43  39  46  1   
 44  40  41  2   
 45  40  42  1   
 46  42  43  1   
 47  42  44  1   
 48  42  45  1   
 49  46  47  1   
 50  46  48  1   
 51  46  49  1   
 52  49  50  1   
 53  49  51  1   
@<TRIPOS>SUBSTRUCTURE
  1 LIG  33 GROUP 4 **** **** 0
@<TRIPOS>PROPERTY_DATA
index	|	ligand462
Name	|	NIM-UNI-ed9-1
ChemPlp	|	-99.9961
MM-GBSA Nwat=0	|	-30.3921
STDEV0	|	2.4514
MM-GBSA Nwat=30	|	-66.7157
STDEV30	|	5.029
MM-GBSA Nwat=60	|	-69.3053
STDEV60	|	5.2908
ST.DEV < 10%	|	Y
RMSD LIG < 2	|	Y
DIST < 5	|	N
DIST < 3.5	|	N

# MOE 2019.01 (io_trps.svl 2018.10)

@<TRIPOS>MOLECULE
ligand124
45 46 1 0 0 
SMALL
NO_CHARGES


@<TRIPOS>ATOM
  1 C1       6.8890    -5.9340    20.6960 C.3   1 LIG   0.0000 
  2 C5       6.3690    -4.5840    21.1620 C.2   1 LIG   0.0000 
  3 O6       5.1990    -4.4360    21.3830 O.2   1 LIG   0.0000 
  4 N7       7.2360    -3.5360    21.3300 N.am  1 LIG   0.0000 
  5 C9       6.7330    -2.2310    21.7800 C.3   1 LIG   0.0000 
  6 C10      7.6140    -1.7080    22.9030 C.1   1 LIG   0.0000 
  7 C11      8.3040    -1.2990    23.7820 C.1   1 LIG   0.0000 
  8 C12      9.1860    -0.7760    24.9040 C.3   1 LIG   0.0000 
  9 N13      9.4990    -1.8720    25.8330 N.am  1 LIG   0.0000 
 10 C15      8.4860    -2.6000    26.4000 C.2   1 LIG   0.0000 
 11 O16      7.3430    -2.3420    26.1380 O.2   1 LIG   0.0000 
 12 C17      8.8100    -3.7330    27.3590 C.3   1 LIG   0.0000 
 13 CL20     9.7010    -5.0080    26.4930 Cl    1 LIG   0.0000 
 14 C21     10.4750    -0.2230    24.3200 C.ar  1 LIG   0.0000 
 15 C22     10.9220     1.0400    24.6950 C.ar  1 LIG   0.0000 
 16 C24     12.1050     1.5310    24.1510 C.ar  1 LIG   0.0000 
 17 C26     12.8380     0.7760    23.2420 C.ar  1 LIG   0.0000 
 18 C28     12.3730    -0.4850    22.8800 C.ar  1 LIG   0.0000 
 19 CL29    13.3060    -1.4580    21.7160 Cl    1 LIG   0.0000 
 20 C30     11.1940    -0.9940    23.4120 C.ar  1 LIG   0.0000 
 21 C32      6.7560    -1.2500    20.6190 C.ar  1 LIG   0.0000 
 22 C33      5.8030    -1.3590    19.6120 C.ar  1 LIG   0.0000 
 23 C35      5.8200    -0.4640    18.5480 C.ar  1 LIG   0.0000 
 24 C37      6.7920     0.5310    18.5050 C.ar  1 LIG   0.0000 
 25 O38      6.8130     1.4020    17.4730 O.3   1 LIG   0.0000 
 26 C40      7.7480     0.6440    19.5090 C.ar  1 LIG   0.0000 
 27 C42      7.7260    -0.2540    20.5710 C.ar  1 LIG   0.0000 
 28 H22     10.3990     1.5890    25.3480 H     1 LIG   0.0000 
 29 H24     12.4310     2.4380    24.4170 H     1 LIG   0.0000 
 30 H26     13.6880     1.1330    22.8540 H     1 LIG   0.0000 
 31 H30     10.8670    -1.9010    23.1460 H     1 LIG   0.0000 
 32 H33      5.1090    -2.0780    19.6530 H     1 LIG   0.0000 
 33 H35      5.1390    -0.5340    17.8190 H     1 LIG   0.0000 
 34 H40      8.4430     1.3620    19.4680 H     1 LIG   0.0000 
 35 H42      8.4070    -0.1830    21.3000 H     1 LIG   0.0000 
 36 H11      7.8790    -5.8810    20.5610 H     1 LIG   0.0000 
 37 H12      6.6840    -6.6270    21.3880 H     1 LIG   0.0000 
 38 H13      6.4470    -6.1820    19.8340 H     1 LIG   0.0000 
 39 H9       5.7950    -2.3320    22.1130 H     1 LIG   0.0000 
 40 H12      8.7040    -0.0500    25.3960 H     1 LIG   0.0000 
 41 H171     9.3720    -3.3840    28.1090 H     1 LIG   0.0000 
 42 H172     7.9600    -4.1110    27.7270 H     1 LIG   0.0000 
 43 H7       8.2110    -3.6600    21.1460 H     1 LIG   0.0000 
 44 H13     10.4510    -2.0860    26.0500 H     1 LIG   0.0000 
 45 H38      7.1690     2.3260    17.6070 H     1 LIG   0.0000 
@<TRIPOS>BOND
  1   1   2  1   
  2   1  36  1   
  3   1  37  1   
  4   1  38  1   
  5   2   3  2   
  6   2   4  am  
  7   4   5  1   
  8   4  43  1   
  9   5   6  1   
 10   5  21  1   
 11   5  39  1   
 12   6   7  3   
 13   7   8  1   
 14   8   9  1   
 15   8  14  1   
 16   8  40  1   
 17   9  10  am  
 18   9  44  1   
 19  10  11  2   
 20  10  12  1   
 21  12  13  1   
 22  12  41  1   
 23  12  42  1   
 24  14  15  ar  
 25  14  20  ar  
 26  15  16  ar  
 27  15  28  1   
 28  16  17  ar  
 29  16  29  1   
 30  17  18  ar  
 31  17  30  1   
 32  18  19  1   
 33  18  20  ar  
 34  20  31  1   
 35  21  22  ar  
 36  21  27  ar  
 37  22  23  ar  
 38  22  32  1   
 39  23  24  ar  
 40  23  33  1   
 41  24  25  1   
 42  24  26  ar  
 43  25  45  1   
 44  26  27  ar  
 45  26  34  1   
 46  27  35  1   
@<TRIPOS>SUBSTRUCTURE
  1 LIG   6 GROUP 4 **** **** 0
@<TRIPOS>PROPERTY_DATA
index	|	ligand124
Name	|	DAV-CRI-25b-3
ChemPlp	|	-96.5966
MM-GBSA Nwat=0	|	-34.6822
STDEV0	|	3.1663
MM-GBSA Nwat=30	|	-66.292
STDEV30	|	5.7494
MM-GBSA Nwat=60	|	-68.5558
STDEV60	|	5.8168
ST.DEV < 10%	|	Y
RMSD LIG < 2	|	Y
DIST < 5	|	N
DIST < 3.5	|	N

# MOE 2019.01 (io_trps.svl 2018.10)

@<TRIPOS>MOLECULE
ligand097
54 56 1 0 0 
SMALL
NO_CHARGES


@<TRIPOS>ATOM
  1 N1       8.2780    -7.6100    22.6370 N.1   1 LIG   0.0000 
  2 C2       7.8110    -6.6280    22.2960 C.1   1 LIG   0.0000 
  3 C3       7.1880    -5.3180    21.8400 C.ar  1 LIG   0.0000 
  4 C4       6.4090    -5.2420    20.6900 C.ar  1 LIG   0.0000 
  5 H5       6.2500    -6.0640    20.1440 H     1 LIG   0.0000 
  6 N6       5.8690    -4.0760    20.3060 N.ar  1 LIG   0.0000 
  7 C7       6.0590    -2.9500    21.0100 C.ar  1 LIG   0.0000 
  8 C8       5.4310    -1.6470    20.5450 C.3   1 LIG   0.0000 
  9 H9       4.4510    -1.6600    20.7430 H     1 LIG   0.0000 
 10 H10      5.8580    -0.8810    21.0260 H     1 LIG   0.0000 
 11 N11      5.6370    -1.4930    19.0980 N.am  1 LIG   0.0000 
 12 H12      5.6570    -2.3000    18.5070 H     1 LIG   0.0000 
 13 C13      5.8010    -0.2440    18.5580 C.2   1 LIG   0.0000 
 14 O14      5.9690    -0.1190    17.3770 O.2   1 LIG   0.0000 
 15 N15      5.7720     0.8850    19.3850 N.am  1 LIG   0.0000 
 16 C16      4.5050     1.6100    19.5670 C.3   1 LIG   0.0000 
 17 H17      3.7440     0.9760    19.4330 H     1 LIG   0.0000 
 18 H18      4.4490     2.3460    18.8920 H     1 LIG   0.0000 
 19 C19      4.4150     2.2080    20.9630 C.3   1 LIG   0.0000 
 20 H20      3.6660     2.8690    20.9860 H     1 LIG   0.0000 
 21 H21      4.2330     1.4750    21.6190 H     1 LIG   0.0000 
 22 O22      5.6230     2.8640    21.3270 O.3   1 LIG   0.0000 
 23 C23      6.6930     1.9340    21.4190 C.3   1 LIG   0.0000 
 24 H24      6.4420     1.2120    22.0640 H     1 LIG   0.0000 
 25 H25      7.5080     2.4080    21.7520 H     1 LIG   0.0000 
 26 C26      7.0050     1.3040    20.0700 C.3   1 LIG   0.0000 
 27 H27      7.4840     1.9720    19.5000 H     1 LIG   0.0000 
 28 H28      7.5890     0.5050    20.2090 H     1 LIG   0.0000 
 29 C29      6.8280    -2.9630    22.1690 C.ar  1 LIG   0.0000 
 30 C30      7.0640    -1.7070    22.9930 C.3   1 LIG   0.0000 
 31 H31      6.8630    -0.9010    22.4360 H     1 LIG   0.0000 
 32 H32      6.4660    -1.7170    23.7940 H     1 LIG   0.0000 
 33 N33      8.4660    -1.6640    23.4290 N.3   1 LIG   0.0000 
 34 C34      9.2680    -1.2910    22.2540 C.3   1 LIG   0.0000 
 35 H35      8.9470    -0.4090    21.9090 H     1 LIG   0.0000 
 36 H36      9.1500    -1.9880    21.5460 H     1 LIG   0.0000 
 37 C37     10.7460    -1.1790    22.5960 C.3   1 LIG   0.0000 
 38 H38     11.1250    -2.0980    22.7030 H     1 LIG   0.0000 
 39 H39     11.2180    -0.7090    21.8500 H     1 LIG   0.0000 
 40 N40     10.9550    -0.4270    23.8440 N.am  1 LIG   0.0000 
 41 C41     12.1140     0.3460    23.9860 C.2   1 LIG   0.0000 
 42 O42     12.3010     0.9660    24.9960 O.2   1 LIG   0.0000 
 43 C43     13.1350     0.3980    22.8610 C.3   1 LIG   0.0000 
 44 H44     12.7700     0.9410    22.1050 H     1 LIG   0.0000 
 45 H45     13.9790     0.8180    23.1960 H     1 LIG   0.0000 
 46 CL46    13.4790    -1.2530    22.2940 Cl    1 LIG   0.0000 
 47 C47      9.9880    -0.4440    24.9530 C.3   1 LIG   0.0000 
 48 H48     10.0610     0.4130    25.4620 H     1 LIG   0.0000 
 49 H49     10.2010    -1.2110    25.5590 H     1 LIG   0.0000 
 50 C50      8.5640    -0.5980    24.4390 C.3   1 LIG   0.0000 
 51 H51      7.9640    -0.8220    25.2070 H     1 LIG   0.0000 
 52 H52      8.2720     0.2660    24.0280 H     1 LIG   0.0000 
 53 C53      7.3960    -4.1620    22.5840 C.ar  1 LIG   0.0000 
 54 H54      7.9530    -4.1940    23.4150 H     1 LIG   0.0000 
@<TRIPOS>BOND
  1   1   2  3   
  2   2   3  1   
  3   3   4  ar  
  4   3  53  ar  
  5   4   5  1   
  6   4   6  ar  
  7   6   7  ar  
  8   7   8  1   
  9   7  29  ar  
 10   8   9  1   
 11   8  10  1   
 12   8  11  1   
 13  11  12  1   
 14  11  13  am  
 15  13  14  2   
 16  13  15  am  
 17  15  16  1   
 18  15  26  1   
 19  16  17  1   
 20  16  18  1   
 21  16  19  1   
 22  19  20  1   
 23  19  21  1   
 24  19  22  1   
 25  22  23  1   
 26  23  24  1   
 27  23  25  1   
 28  23  26  1   
 29  26  27  1   
 30  26  28  1   
 31  29  30  1   
 32  29  53  ar  
 33  30  31  1   
 34  30  32  1   
 35  30  33  1   
 36  33  34  1   
 37  33  50  1   
 38  34  35  1   
 39  34  36  1   
 40  34  37  1   
 41  37  38  1   
 42  37  39  1   
 43  37  40  1   
 44  40  41  am  
 45  40  47  1   
 46  41  42  2   
 47  41  43  1   
 48  43  44  1   
 49  43  45  1   
 50  43  46  1   
 51  47  48  1   
 52  47  49  1   
 53  47  50  1   
 54  50  51  1   
 55  50  52  1   
 56  53  54  1   
@<TRIPOS>SUBSTRUCTURE
  1 LIG  34 GROUP 4 **** **** 0
@<TRIPOS>PROPERTY_DATA
index	|	ligand097
Name	|	DAR-DIA-fb2-17
ChemPlp	|	-97.8067
MM-GBSA Nwat=0	|	-34.844
STDEV0	|	2.2913
MM-GBSA Nwat=30	|	-66.2824
STDEV30	|	4.7402
MM-GBSA Nwat=60	|	-70.2208
STDEV60	|	4.9998
ST.DEV < 10%	|	Y
RMSD LIG < 2	|	Y
DIST < 5	|	N
DIST < 3.5	|	N

# MOE 2019.01 (io_trps.svl 2018.10)

@<TRIPOS>MOLECULE
ligand602
59 62 1 0 0 
SMALL
NO_CHARGES


@<TRIPOS>ATOM
  1 C1      10.5140     5.7950    24.5240 C.3   1 LIG   0.0000 
  2 C5      11.9000     6.0930    25.0720 C.2   1 LIG   0.0000 
  3 O6      12.0280     6.4990    26.1940 O.2   1 LIG   0.0000 
  4 N7      13.0050     5.8970    24.2850 N.am  1 LIG   0.0000 
  5 C9      12.8490     5.3990    22.9110 C.3   1 LIG   0.0000 
  6 C12     12.9960     3.8860    22.9000 C.3   1 LIG   0.0000 
  7 C15     11.7620     3.2530    23.5210 C.3   1 LIG   0.0000 
  8 C18     11.7710     1.7560    23.2540 C.2   1 LIG   0.0000 
  9 C19     12.8560     1.0430    22.8390 C.2   1 LIG   0.0000 
 10 N21     12.4500    -0.2510    22.7200 N.pl3 1 LIG   0.0000 
 11 C22     13.3110    -1.3640    22.2950 C.3   1 LIG   0.0000 
 12 C26     11.1300    -0.3570    23.0560 C.ar  1 LIG   0.0000 
 13 C27     10.2960    -1.4680    23.0890 C.ar  1 LIG   0.0000 
 14 C29      8.9670    -1.3300    23.4710 C.ar  1 LIG   0.0000 
 15 C30      8.0650    -2.5550    23.5010 C.3   1 LIG   0.0000 
 16 C31      8.3140    -3.3020    22.2030 C.3   1 LIG   0.0000 
 17 N34      7.4820    -4.5080    22.2580 N.am  1 LIG   0.0000 
 18 C35      6.2690    -4.6460    21.5730 C.2   1 LIG   0.0000 
 19 O36      5.8600    -3.7480    20.8900 O.2   1 LIG   0.0000 
 20 C37      5.4690    -5.9330    21.6940 C.3   1 LIG   0.0000 
 21 CL40     5.4860    -6.4840    23.3870 Cl    1 LIG   0.0000 
 22 C41      8.0600    -5.5510    23.1150 C.3   1 LIG   0.0000 
 23 C44      8.4480    -4.8900    24.4290 C.ar  1 LIG   0.0000 
 24 C45      8.8190    -5.7310    25.4670 C.ar  1 LIG   0.0000 
 25 C47      9.2030    -5.2160    26.7010 C.ar  1 LIG   0.0000 
 26 C49      9.2140    -3.8390    26.8970 C.ar  1 LIG   0.0000 
 27 C51      8.8420    -2.9950    25.8570 C.ar  1 LIG   0.0000 
 28 C53      8.4600    -3.5040    24.6210 C.ar  1 LIG   0.0000 
 29 C54      8.4760    -0.0770    23.8220 C.ar  1 LIG   0.0000 
 30 C56      9.3300     1.0210    23.7810 C.ar  1 LIG   0.0000 
 31 C58     10.6620     0.8900    23.3980 C.ar  1 LIG   0.0000 
 32 H19     13.7720     1.4010    22.6570 H     1 LIG   0.0000 
 33 H27     10.6520    -2.3680    22.8370 H     1 LIG   0.0000 
 34 H54      7.5220     0.0330    24.0990 H     1 LIG   0.0000 
 35 H56      8.9790     1.9230    24.0320 H     1 LIG   0.0000 
 36 H45      8.8110    -6.7210    25.3260 H     1 LIG   0.0000 
 37 H47      9.4680    -5.8330    27.4420 H     1 LIG   0.0000 
 38 H49      9.4880    -3.4590    27.7810 H     1 LIG   0.0000 
 39 H51      8.8500    -2.0050    26.0000 H     1 LIG   0.0000 
 40 H11     10.5910     5.4680    23.5820 H     1 LIG   0.0000 
 41 H12     10.0770     5.0940    25.0860 H     1 LIG   0.0000 
 42 H13      9.9620     6.6290    24.5430 H     1 LIG   0.0000 
 43 H91     13.5510     5.8060    22.3270 H     1 LIG   0.0000 
 44 H92     11.9440     5.6480    22.5670 H     1 LIG   0.0000 
 45 H121    13.8050     3.6260    23.4270 H     1 LIG   0.0000 
 46 H122    13.0950     3.5680    21.9570 H     1 LIG   0.0000 
 47 H151    11.7640     3.4150    24.5080 H     1 LIG   0.0000 
 48 H152    10.9400     3.6580    23.1190 H     1 LIG   0.0000 
 49 H221    14.2310    -1.0200    22.1080 H     1 LIG   0.0000 
 50 H222    13.3530    -2.0500    23.0220 H     1 LIG   0.0000 
 51 H223    12.9350    -1.7790    21.4660 H     1 LIG   0.0000 
 52 H30      7.1040    -2.2880    23.5800 H     1 LIG   0.0000 
 53 H311     8.0520    -2.7360    21.4220 H     1 LIG   0.0000 
 54 H312     9.2790    -3.5500    22.1260 H     1 LIG   0.0000 
 55 H371     4.5260    -5.7680    21.4070 H     1 LIG   0.0000 
 56 H372     5.8770    -6.6350    21.1110 H     1 LIG   0.0000 
 57 H411     8.8680    -5.9460    22.6770 H     1 LIG   0.0000 
 58 H412     7.3850    -6.2710    23.2800 H     1 LIG   0.0000 
 59 H7      13.9170     6.0920    24.6460 H     1 LIG   0.0000 
@<TRIPOS>BOND
  1   1   2  1   
  2   1  40  1   
  3   1  41  1   
  4   1  42  1   
  5   2   3  2   
  6   2   4  am  
  7   4   5  1   
  8   4  59  1   
  9   5   6  1   
 10   5  43  1   
 11   5  44  1   
 12   6   7  1   
 13   6  45  1   
 14   6  46  1   
 15   7   8  1   
 16   7  47  1   
 17   7  48  1   
 18   8   9  2   
 19   8  31  1   
 20   9  10  1   
 21   9  32  1   
 22  10  11  1   
 23  10  12  1   
 24  11  49  1   
 25  11  50  1   
 26  11  51  1   
 27  12  13  ar  
 28  12  31  ar  
 29  13  14  ar  
 30  13  33  1   
 31  14  15  1   
 32  14  29  ar  
 33  15  16  1   
 34  15  28  1   
 35  15  52  1   
 36  16  17  1   
 37  16  53  1   
 38  16  54  1   
 39  17  18  am  
 40  17  22  1   
 41  18  19  2   
 42  18  20  1   
 43  20  21  1   
 44  20  55  1   
 45  20  56  1   
 46  22  23  1   
 47  22  57  1   
 48  22  58  1   
 49  23  24  ar  
 50  23  28  ar  
 51  24  25  ar  
 52  24  36  1   
 53  25  26  ar  
 54  25  37  1   
 55  26  27  ar  
 56  26  38  1   
 57  27  28  ar  
 58  27  39  1   
 59  29  30  ar  
 60  29  34  1   
 61  30  31  ar  
 62  30  35  1   
@<TRIPOS>SUBSTRUCTURE
  1 LIG  14 GROUP 4 **** **** 0
@<TRIPOS>PROPERTY_DATA
index	|	ligand602
Name	|	TAM-UNI-d1c-11
ChemPlp	|	-103.497
MM-GBSA Nwat=0	|	-35.68
STDEV0	|	3.6544
MM-GBSA Nwat=30	|	-66.1701
STDEV30	|	5.8046
MM-GBSA Nwat=60	|	-72.1685
STDEV60	|	5.7178
ST.DEV < 10%	|	Y
RMSD LIG < 2	|	Y
DIST < 5	|	N
DIST < 3.5	|	N

# MOE 2019.01 (io_trps.svl 2018.10)

@<TRIPOS>MOLECULE
ligand315
65 68 1 0 0 
SMALL
USER_CHARGES


@<TRIPOS>ATOM
  1 O1      12.7590     4.9950    22.4340 O.2   1 LIG   0.0000 
  2 C2      11.9080     4.6780    23.2190 C.2   1 LIG   0.0000 
  3 C3      10.9650     5.7280    23.7830 C.3   1 LIG   0.0000 
  4 N6       9.6890     5.6830    23.0560 N.4   1 LIG   1.0000 
  5 C9       8.8140     6.7640    23.5320 C.3   1 LIG   0.0000 
  6 C12      7.6040     6.8780    22.6170 C.2   1 LIG   0.0000 
  7 C13      7.2290     5.9490    21.6960 C.2   1 LIG   0.0000 
  8 N15      6.1060     6.4320    21.0940 N.pl3 1 LIG   0.0000 
  9 C17      5.7710     7.6440    21.6200 C.ar  1 LIG   0.0000 
 10 C18      4.7160     8.4980    21.3160 C.ar  1 LIG   0.0000 
 11 C20      4.5730     9.7060    21.9880 C.ar  1 LIG   0.0000 
 12 C22      5.4990    10.0530    22.9660 C.ar  1 LIG   0.0000 
 13 F23      5.3600    11.2160    23.6020 F     1 LIG   0.0000 
 14 C24      6.5420     9.1750    23.2510 C.ar  1 LIG   0.0000 
 15 C26      6.6940     7.9590    22.5860 C.ar  1 LIG   0.0000 
 16 N27     11.7870     3.3700    23.6060 N.am  1 LIG   0.0000 
 17 C29     12.6980     2.3540    23.0610 C.3   1 LIG   0.0000 
 18 C32     12.1560     0.9680    23.3700 C.ar  1 LIG   0.0000 
 19 C33     12.5390    -0.1090    22.5770 C.ar  1 LIG   0.0000 
 20 C35     12.0480    -1.3800    22.8560 C.ar  1 LIG   0.0000 
 21 C37     11.1790    -1.5570    23.9280 C.ar  1 LIG   0.0000 
 22 C38     10.6390    -2.9440    24.2390 C.3   1 LIG   0.0000 
 23 N41      9.2340    -3.0290    23.8170 N.4   1 LIG   1.0000 
 24 C43      9.1920    -2.6730    22.3890 C.3   1 LIG   0.0000 
 25 C46      7.7840    -2.7700    21.8200 C.3   1 LIG   0.0000 
 26 N49      7.1180    -4.0130    22.2390 N.am  1 LIG   0.0000 
 27 C50      6.2060    -4.6100    21.3620 C.2   1 LIG   0.0000 
 28 O51      5.9830    -4.1070    20.2950 O.2   1 LIG   0.0000 
 29 C52      5.4980    -5.8950    21.7590 C.3   1 LIG   0.0000 
 30 CL55     4.2950    -5.5430    23.0240 Cl    1 LIG   0.0000 
 31 C56      7.3830    -4.6570    23.5360 C.3   1 LIG   0.0000 
 32 C59      8.8160    -4.4290    23.9950 C.3   1 LIG   0.0000 
 33 C62     10.7950    -0.4810    24.7220 C.ar  1 LIG   0.0000 
 34 C64     11.2860     0.7900    24.4410 C.ar  1 LIG   0.0000 
 35 H13      7.6870     5.0820    21.4990 H     1 LIG   0.0000 
 36 H15      5.5990     5.9630    20.3710 H     1 LIG   0.0000 
 37 H18      4.0560     8.2410    20.6100 H     1 LIG   0.0000 
 38 H20      3.8130    10.3200    21.7700 H     1 LIG   0.0000 
 39 H24      7.2050     9.4250    23.9560 H     1 LIG   0.0000 
 40 H33     13.1650     0.0300    21.8090 H     1 LIG   0.0000 
 41 H35     12.3170    -2.1600    22.2910 H     1 LIG   0.0000 
 42 H62     10.1700    -0.6200    25.4890 H     1 LIG   0.0000 
 43 H64     11.0140     1.5700    25.0040 H     1 LIG   0.0000 
 44 H31     10.8030     5.5440    24.7530 H     1 LIG   0.0000 
 45 H32     11.3760     6.6350    23.6800 H     1 LIG   0.0000 
 46 H61      9.2460     4.8010    23.2160 H     1 LIG   0.0000 
 47 H62      9.8580     5.7980    22.0770 H     1 LIG   0.0000 
 48 H91      9.3190     7.6270    23.5270 H     1 LIG   0.0000 
 49 H92      8.5100     6.5610    24.4630 H     1 LIG   0.0000 
 50 H291    13.6020     2.4590    23.4760 H     1 LIG   0.0000 
 51 H292    12.7720     2.4700    22.0700 H     1 LIG   0.0000 
 52 H381    11.1770    -3.6290    23.7480 H     1 LIG   0.0000 
 53 H382    10.7020    -3.1130    25.2230 H     1 LIG   0.0000 
 54 H41      8.6600    -2.4120    24.3560 H     1 LIG   0.0000 
 55 H431     9.7890    -3.2950    21.8820 H     1 LIG   0.0000 
 56 H432     9.5200    -1.7340    22.2800 H     1 LIG   0.0000 
 57 H461     7.2490    -1.9900    22.1430 H     1 LIG   0.0000 
 58 H462     7.8350    -2.7490    20.8220 H     1 LIG   0.0000 
 59 H521     5.0380    -6.2830    20.9610 H     1 LIG   0.0000 
 60 H522     6.1670    -6.5500    22.1090 H     1 LIG   0.0000 
 61 H561     7.2230    -5.6410    23.4480 H     1 LIG   0.0000 
 62 H562     6.7590    -4.2780    24.2200 H     1 LIG   0.0000 
 63 H591     8.8860    -4.6670    24.9640 H     1 LIG   0.0000 
 64 H592     9.4230    -5.0180    23.4620 H     1 LIG   0.0000 
 65 H27     11.0780     3.1060    24.2600 H     1 LIG   0.0000 
@<TRIPOS>BOND
  1   1   2  2   
  2   2   3  1   
  3   2  16  am  
  4   3   4  1   
  5   3  44  1   
  6   3  45  1   
  7   4   5  1   
  8   4  46  1   
  9   4  47  1   
 10   5   6  1   
 11   5  48  1   
 12   5  49  1   
 13   6   7  2   
 14   6  15  1   
 15   7   8  1   
 16   7  35  1   
 17   8   9  1   
 18   8  36  1   
 19   9  10  ar  
 20   9  15  ar  
 21  10  11  ar  
 22  10  37  1   
 23  11  12  ar  
 24  11  38  1   
 25  12  13  1   
 26  12  14  ar  
 27  14  15  ar  
 28  14  39  1   
 29  16  17  1   
 30  16  65  1   
 31  17  18  1   
 32  17  50  1   
 33  17  51  1   
 34  18  19  ar  
 35  18  34  ar  
 36  19  20  ar  
 37  19  40  1   
 38  20  21  ar  
 39  20  41  1   
 40  21  22  1   
 41  21  33  ar  
 42  22  23  1   
 43  22  52  1   
 44  22  53  1   
 45  23  24  1   
 46  23  32  1   
 47  23  54  1   
 48  24  25  1   
 49  24  55  1   
 50  24  56  1   
 51  25  26  1   
 52  25  57  1   
 53  25  58  1   
 54  26  27  am  
 55  26  31  1   
 56  27  28  2   
 57  27  29  1   
 58  29  30  1   
 59  29  59  1   
 60  29  60  1   
 61  31  32  1   
 62  31  61  1   
 63  31  62  1   
 64  32  63  1   
 65  32  64  1   
 66  33  34  ar  
 67  33  42  1   
 68  34  43  1   
@<TRIPOS>SUBSTRUCTURE
  1 LIG  34 GROUP 4 **** **** 0
@<TRIPOS>PROPERTY_DATA
index	|	ligand315
Name	|	MAK-UNK-72b-1
ChemPlp	|	-109.371
MM-GBSA Nwat=0	|	-37.3274
STDEV0	|	3.6484
MM-GBSA Nwat=30	|	-65.9923
STDEV30	|	5.8419
MM-GBSA Nwat=60	|	-80.637
STDEV60	|	5.5385
ST.DEV < 10%	|	Y
RMSD LIG < 2	|	Y
DIST < 5	|	N
DIST < 3.5	|	N

# MOE 2019.01 (io_trps.svl 2018.10)

@<TRIPOS>MOLECULE
ligand014
52 54 1 0 0 
SMALL
USER_CHARGES


@<TRIPOS>ATOM
  1 O1      12.6930     1.2530    23.7320 O.2   1 LIG   0.0000 
  2 C2      11.7380     1.5980    23.0930 C.2   1 LIG   0.0000 
  3 C3      11.1690     2.9960    23.2700 C.3   1 LIG   0.0000 
  4 CL6     12.4270     4.2000    22.9000 Cl    1 LIG   0.0000 
  5 N7      11.1470     0.7120    22.1840 N.am  1 LIG   0.0000 
  6 C8      11.7100    -0.6420    22.0510 C.3   1 LIG   0.0000 
  7 C11     11.0360    -1.6630    22.9590 C.3   1 LIG   0.0000 
  8 N14      9.6710    -2.0260    22.5330 N.4   1 LIG   1.0000 
  9 C15      9.1120    -2.9050    23.5700 C.3   1 LIG   0.0000 
 10 C18      8.2240    -3.9540    22.9200 C.ar  1 LIG   0.0000 
 11 C19      7.4080    -3.5830    21.8560 C.ar  1 LIG   0.0000 
 12 C21      6.5950    -4.5410    21.2600 C.ar  1 LIG   0.0000 
 13 O22      5.8000    -4.1880    20.2270 O.3   1 LIG   0.0000 
 14 C24      6.5860    -5.8570    21.7090 C.ar  1 LIG   0.0000 
 15 C26      7.4070    -6.2140    22.7740 C.ar  1 LIG   0.0000 
 16 C28      8.2260    -5.2670    23.3800 C.ar  1 LIG   0.0000 
 17 O29      9.0190    -5.6230    24.4130 O.3   1 LIG   0.0000 
 18 C31      8.7160    -0.9240    22.3200 C.3   1 LIG   0.0000 
 19 C34      9.0370    -0.0470    21.1160 C.3   1 LIG   0.0000 
 20 C35      7.7400     0.5260    20.5670 C.ar  1 LIG   0.0000 
 21 C36      7.3620     0.2140    19.2650 C.ar  1 LIG   0.0000 
 22 C38      6.1770     0.7380    18.7590 C.ar  1 LIG   0.0000 
 23 O39      5.8050     0.4390    17.4960 O.3   1 LIG   0.0000 
 24 C41      5.3690     1.5640    19.5320 C.ar  1 LIG   0.0000 
 25 C43      5.7590     1.8670    20.8320 C.ar  1 LIG   0.0000 
 26 C45      6.9420     1.3520    21.3520 C.ar  1 LIG   0.0000 
 27 O46      7.3130     1.6520    22.6140 O.3   1 LIG   0.0000 
 28 C48      9.9730     1.1220    21.3940 C.3   1 LIG   0.0000 
 29 H19      7.4070    -2.6400    21.5240 H     1 LIG   0.0000 
 30 H24      5.9970    -6.5380    21.2730 H     1 LIG   0.0000 
 31 H26      7.4080    -7.1580    23.1050 H     1 LIG   0.0000 
 32 H36      7.9360    -0.3790    18.7000 H     1 LIG   0.0000 
 33 H41      4.5180     1.9350    19.1590 H     1 LIG   0.0000 
 34 H43      5.1860     2.4600    21.3980 H     1 LIG   0.0000 
 35 H31     10.3940     3.1220    22.6500 H     1 LIG   0.0000 
 36 H32     10.8620     3.1140    24.2150 H     1 LIG   0.0000 
 37 H81     12.6830    -0.6060    22.2800 H     1 LIG   0.0000 
 38 H82     11.6030    -0.9400    21.1020 H     1 LIG   0.0000 
 39 H111    11.5940    -2.4930    22.9710 H     1 LIG   0.0000 
 40 H112    10.9870    -1.2810    23.8820 H     1 LIG   0.0000 
 41 H14      9.7380    -2.5490    21.6830 H     1 LIG   0.0000 
 42 H151     8.5700    -2.3620    24.2110 H     1 LIG   0.0000 
 43 H152     9.8560    -3.3560    24.0610 H     1 LIG   0.0000 
 44 H311     8.7150    -0.3480    23.1370 H     1 LIG   0.0000 
 45 H312     7.8060    -1.3180    22.1880 H     1 LIG   0.0000 
 46 H34      9.4520    -0.6210    20.4100 H     1 LIG   0.0000 
 47 H481    10.2870     1.4990    20.5220 H     1 LIG   0.0000 
 48 H482     9.4720     1.8240    21.9000 H     1 LIG   0.0000 
 49 H22      6.0220    -4.4880    19.3000 H     1 LIG   0.0000 
 50 H29      9.8350    -6.1760    24.2490 H     1 LIG   0.0000 
 51 H39      4.9850     0.8570    17.1050 H     1 LIG   0.0000 
 52 H46      8.0030     2.3580    22.7780 H     1 LIG   0.0000 
@<TRIPOS>BOND
  1   1   2  2   
  2   2   3  1   
  3   2   5  am  
  4   3   4  1   
  5   3  35  1   
  6   3  36  1   
  7   5   6  1   
  8   5  28  1   
  9   6   7  1   
 10   6  37  1   
 11   6  38  1   
 12   7   8  1   
 13   7  39  1   
 14   7  40  1   
 15   8   9  1   
 16   8  18  1   
 17   8  41  1   
 18   9  10  1   
 19   9  42  1   
 20   9  43  1   
 21  10  11  ar  
 22  10  16  ar  
 23  11  12  ar  
 24  11  29  1   
 25  12  13  1   
 26  12  14  ar  
 27  13  49  1   
 28  14  15  ar  
 29  14  30  1   
 30  15  16  ar  
 31  15  31  1   
 32  16  17  1   
 33  17  50  1   
 34  18  19  1   
 35  18  44  1   
 36  18  45  1   
 37  19  20  1   
 38  19  28  1   
 39  19  46  1   
 40  20  21  ar  
 41  20  26  ar  
 42  21  22  ar  
 43  21  32  1   
 44  22  23  1   
 45  22  24  ar  
 46  23  51  1   
 47  24  25  ar  
 48  24  33  1   
 49  25  26  ar  
 50  25  34  1   
 51  26  27  1   
 52  27  52  1   
 53  28  47  1   
 54  28  48  1   
@<TRIPOS>SUBSTRUCTURE
  1 LIG  18 GROUP 4 **** **** 0
@<TRIPOS>PROPERTY_DATA
index	|	ligand014
Name	|	AVI-UNI-70b-2
ChemPlp	|	-97.8966
MM-GBSA Nwat=0	|	-25.2408
STDEV0	|	2.9499
MM-GBSA Nwat=30	|	-63.7633
STDEV30	|	5.1541
MM-GBSA Nwat=60	|	-65.7208
STDEV60	|	5.2566
ST.DEV < 10%	|	Y
RMSD LIG < 2	|	Y
DIST < 5	|	N
DIST < 3.5	|	N

# MOE 2019.01 (io_trps.svl 2018.10)

@<TRIPOS>MOLECULE
ligand220
57 60 1 0 0 
SMALL
NO_CHARGES


@<TRIPOS>ATOM
  1 C1       9.8240     9.2040    27.2840 C.2   1 LIG   0.0000 
  2 H2      10.2690    10.0430    27.5980 H     1 LIG   0.0000 
  3 H3       8.8310     9.1080    27.3530 H     1 LIG   0.0000 
  4 C4      10.5370     8.2380    26.7860 C.2   1 LIG   0.0000 
  5 H5      11.5300     8.3330    26.7170 H     1 LIG   0.0000 
  6 C6       9.8620     6.9620    26.3090 C.2   1 LIG   0.0000 
  7 O7       8.6760     6.8270    26.4360 O.2   1 LIG   0.0000 
  8 N8      10.6230     5.9450    25.7200 N.am  1 LIG   0.0000 
  9 C9      12.0760     6.1320    25.5740 C.3   1 LIG   0.0000 
 10 H10     12.5340     5.7590    26.3800 H     1 LIG   0.0000 
 11 H11     12.2720     7.1100    25.5020 H     1 LIG   0.0000 
 12 C12     12.6060     5.4290    24.3330 C.3   1 LIG   0.0000 
 13 H13     12.3420     5.9550    23.5250 H     1 LIG   0.0000 
 14 H14     13.6030     5.3810    24.3890 H     1 LIG   0.0000 
 15 N15     12.0680     4.0640    24.2120 N.3   1 LIG   0.0000 
 16 C16     12.6150     3.5000    22.9710 C.3   1 LIG   0.0000 
 17 H17     13.6120     3.5720    22.9830 H     1 LIG   0.0000 
 18 H18     12.2530     4.0050    22.1880 H     1 LIG   0.0000 
 19 C19     12.2140     2.0380    22.8600 C.ar  1 LIG   0.0000 
 20 C20     13.0400     1.0710    23.4210 C.ar  1 LIG   0.0000 
 21 H21     13.8840     1.3360    23.8890 H     1 LIG   0.0000 
 22 C22     12.6800    -0.2700    23.3230 C.ar  1 LIG   0.0000 
 23 H23     13.2630    -0.9800    23.7190 H     1 LIG   0.0000 
 24 C24     11.5020    -0.6120    22.6680 C.ar  1 LIG   0.0000 
 25 H25     11.2440    -1.5760    22.5990 H     1 LIG   0.0000 
 26 C26     10.6710     0.3540    22.1060 C.ar  1 LIG   0.0000 
 27 C27      9.4510     0.3710    21.3930 C.2   1 LIG   0.0000 
 28 C28      8.6310    -0.8530    21.0170 C.3   1 LIG   0.0000 
 29 H29      9.2450    -1.6130    20.8040 H     1 LIG   0.0000 
 30 H30      8.0690    -0.6440    20.2170 H     1 LIG   0.0000 
 31 C31      7.7330    -1.2380    22.1810 C.3   1 LIG   0.0000 
 32 H32      8.2890    -1.3770    23.0000 H     1 LIG   0.0000 
 33 H33      7.0710    -0.5070    22.3470 H     1 LIG   0.0000 
 34 N34      7.0180    -2.4810    21.8570 N.am  1 LIG   0.0000 
 35 H35      7.2120    -3.3180    22.3700 H     1 LIG   0.0000 
 36 C36      6.0850    -2.4930    20.8540 C.2   1 LIG   0.0000 
 37 O37      5.5010    -3.5080    20.5900 O.2   1 LIG   0.0000 
 38 C38      5.8030    -1.2820    20.1130 C.2   1 LIG   0.0000 
 39 C39      6.1010    -1.0780    18.7970 C.2   1 LIG   0.0000 
 40 H40      6.5470    -1.7230    18.1770 H     1 LIG   0.0000 
 41 C41      5.6540     0.2280    18.4840 C.2   1 LIG   0.0000 
 42 H42      5.7270     0.6770    17.5940 H     1 LIG   0.0000 
 43 C43      5.1060     0.7640    19.6140 C.2   1 LIG   0.0000 
 44 H44      4.7060     1.6760    19.6960 H     1 LIG   0.0000 
 45 N45      5.1980    -0.1650    20.6120 N.pl3 1 LIG   0.0000 
 46 H46      4.8770    -0.0460    21.5510 H     1 LIG   0.0000 
 47 C47      9.1220     1.6610    21.0950 C.2   1 LIG   0.0000 
 48 H48      8.3090     1.9640    20.5980 H     1 LIG   0.0000 
 49 N49     10.1050     2.4630    21.5980 N.pl3 1 LIG   0.0000 
 50 H50     10.1360     3.4600    21.5300 H     1 LIG   0.0000 
 51 C51     11.0400     1.6760    22.2090 C.ar  1 LIG   0.0000 
 52 C52     10.6080     4.1350    24.0410 C.3   1 LIG   0.0000 
 53 H53     10.2540     3.2120    23.8890 H     1 LIG   0.0000 
 54 H54     10.4020     4.7050    23.2460 H     1 LIG   0.0000 
 55 C55      9.9290     4.7300    25.2650 C.3   1 LIG   0.0000 
 56 H56      8.9840     4.9610    25.0340 H     1 LIG   0.0000 
 57 H57      9.9360     4.0540    26.0030 H     1 LIG   0.0000 
@<TRIPOS>BOND
  1   1   2  1   
  2   1   3  1   
  3   1   4  2   
  4   4   5  1   
  5   4   6  1   
  6   6   7  2   
  7   6   8  am  
  8   8   9  1   
  9   8  55  1   
 10   9  10  1   
 11   9  11  1   
 12   9  12  1   
 13  12  13  1   
 14  12  14  1   
 15  12  15  1   
 16  15  16  1   
 17  15  52  1   
 18  16  17  1   
 19  16  18  1   
 20  16  19  1   
 21  19  20  ar  
 22  19  51  ar  
 23  20  21  1   
 24  20  22  ar  
 25  22  23  1   
 26  22  24  ar  
 27  24  25  1   
 28  24  26  ar  
 29  26  27  1   
 30  26  51  ar  
 31  27  28  1   
 32  27  47  2   
 33  28  29  1   
 34  28  30  1   
 35  28  31  1   
 36  31  32  1   
 37  31  33  1   
 38  31  34  1   
 39  34  35  1   
 40  34  36  am  
 41  36  37  2   
 42  36  38  1   
 43  38  39  2   
 44  38  45  1   
 45  39  40  1   
 46  39  41  1   
 47  41  42  1   
 48  41  43  2   
 49  43  44  1   
 50  43  45  1   
 51  45  46  1   
 52  47  48  1   
 53  47  49  1   
 54  49  50  1   
 55  49  51  1   
 56  52  53  1   
 57  52  54  1   
 58  52  55  1   
 59  55  56  1   
 60  55  57  1   
@<TRIPOS>SUBSTRUCTURE
  1 LIG  49 GROUP 4 **** **** 0
@<TRIPOS>PROPERTY_DATA
index	|	ligand220
Name	|	JAN-GHE-641-1
ChemPlp	|	-94.7062
MM-GBSA Nwat=0	|	-32.8437
STDEV0	|	2.9043
MM-GBSA Nwat=30	|	-62.5582
STDEV30	|	5.6623
MM-GBSA Nwat=60	|	-72.4533
STDEV60	|	5.6995
ST.DEV < 10%	|	Y
RMSD LIG < 2	|	Y
DIST < 5	|	N
DIST < 3.5	|	N

# MOE 2019.01 (io_trps.svl 2018.10)

@<TRIPOS>MOLECULE
ligand603
54 56 1 0 0 
SMALL
NO_CHARGES


@<TRIPOS>ATOM
  1 O1       8.7980     6.9570    23.5970 O.2   1 LIG   0.0000 
  2 C2       8.6220     5.8320    23.2160 C.2   1 LIG   0.0000 
  3 C3       7.4630     5.5190    22.2840 C.3   1 LIG   0.0000 
  4 H4       7.7400     4.8100    21.6350 H     1 LIG   0.0000 
  5 H5       6.6830     5.1940    22.8190 H     1 LIG   0.0000 
  6 CL6      7.0010     6.9900    21.3960 Cl    1 LIG   0.0000 
  7 N7       9.4820     4.8110    23.6310 N.am  1 LIG   0.0000 
  8 C8      10.5970     5.1380    24.5330 C.3   1 LIG   0.0000 
  9 H9      10.2960     5.0180    25.4790 H     1 LIG   0.0000 
 10 H10     10.8660     6.0900    24.3870 H     1 LIG   0.0000 
 11 C11     11.8000     4.2400    24.2810 C.3   1 LIG   0.0000 
 12 H12     12.2490     4.5300    23.4360 H     1 LIG   0.0000 
 13 H13     12.4380     4.3300    25.0450 H     1 LIG   0.0000 
 14 N14     11.4060     2.8280    24.1510 N.3   1 LIG   0.0000 
 15 C15     12.6310     2.0670    23.8760 C.3   1 LIG   0.0000 
 16 H16     13.2350     2.1080    24.6720 H     1 LIG   0.0000 
 17 H17     13.0970     2.4600    23.0830 H     1 LIG   0.0000 
 18 C18     12.2730     0.6180    23.5860 C.ar  1 LIG   0.0000 
 19 C19     12.9620    -0.0730    22.5950 C.ar  1 LIG   0.0000 
 20 H20     13.6890     0.3760    22.0760 H     1 LIG   0.0000 
 21 C21     12.6280    -1.3990    22.3360 C.ar  1 LIG   0.0000 
 22 H22     13.1200    -1.9020    21.6260 H     1 LIG   0.0000 
 23 C23     11.6190    -2.0330    23.0530 C.ar  1 LIG   0.0000 
 24 H24     11.3830    -2.9860    22.8620 H     1 LIG   0.0000 
 25 C25     10.9420    -1.3230    24.0390 C.ar  1 LIG   0.0000 
 26 C26      9.8360    -2.0000    24.8330 C.3   1 LIG   0.0000 
 27 H27     10.2400    -2.6410    25.4870 H     1 LIG   0.0000 
 28 H28      9.3090    -1.3080    25.3270 H     1 LIG   0.0000 
 29 N29      8.9500    -2.7300    23.9150 N.am  1 LIG   0.0000 
 30 H30      9.0170    -3.7240    23.8400 H     1 LIG   0.0000 
 31 C31      8.0310    -2.0460    23.1630 C.2   1 LIG   0.0000 
 32 O32      7.9500    -0.8520    23.2530 O.2   1 LIG   0.0000 
 33 N33      7.1870    -2.7410    22.2880 N.am  1 LIG   0.0000 
 34 C34      6.2060    -1.9900    21.4880 C.3   1 LIG   0.0000 
 35 H35      6.5460    -1.0610    21.3430 H     1 LIG   0.0000 
 36 H36      5.3390    -1.9540    21.9840 H     1 LIG   0.0000 
 37 C37      5.9810    -2.6540    20.1390 C.3   1 LIG   0.0000 
 38 H38      5.1640    -2.2620    19.7160 H     1 LIG   0.0000 
 39 H39      6.7740    -2.4820    19.5550 H     1 LIG   0.0000 
 40 O40      5.8030    -4.0590    20.2740 O.3   1 LIG   0.0000 
 41 C41      6.9880    -4.6710    20.7650 C.3   1 LIG   0.0000 
 42 H42      7.7490    -4.4380    20.1600 H     1 LIG   0.0000 
 43 H43      6.8610    -5.6630    20.7750 H     1 LIG   0.0000 
 44 C44      7.3170    -4.2010    22.1740 C.3   1 LIG   0.0000 
 45 H45      6.6880    -4.6370    22.8190 H     1 LIG   0.0000 
 46 H46      8.2560    -4.4640    22.3960 H     1 LIG   0.0000 
 47 C47     11.2610     0.0020    24.3140 C.ar  1 LIG   0.0000 
 48 H48     10.7690     0.5050    25.0250 H     1 LIG   0.0000 
 49 C49     10.5370     2.6770    22.9730 C.3   1 LIG   0.0000 
 50 H50     10.3270     1.7070    22.8470 H     1 LIG   0.0000 
 51 H51     11.0200     3.0210    22.1670 H     1 LIG   0.0000 
 52 C52      9.2350     3.4480    23.1350 C.3   1 LIG   0.0000 
 53 H53      8.7750     3.5010    22.2480 H     1 LIG   0.0000 
 54 H54      8.6490     2.9650    23.7860 H     1 LIG   0.0000 
@<TRIPOS>BOND
  1   1   2  2   
  2   2   3  1   
  3   2   7  am  
  4   3   4  1   
  5   3   5  1   
  6   3   6  1   
  7   7   8  1   
  8   7  52  1   
  9   8   9  1   
 10   8  10  1   
 11   8  11  1   
 12  11  12  1   
 13  11  13  1   
 14  11  14  1   
 15  14  15  1   
 16  14  49  1   
 17  15  16  1   
 18  15  17  1   
 19  15  18  1   
 20  18  19  ar  
 21  18  47  ar  
 22  19  20  1   
 23  19  21  ar  
 24  21  22  1   
 25  21  23  ar  
 26  23  24  1   
 27  23  25  ar  
 28  25  26  1   
 29  25  47  ar  
 30  26  27  1   
 31  26  28  1   
 32  26  29  1   
 33  29  30  1   
 34  29  31  am  
 35  31  32  2   
 36  31  33  am  
 37  33  34  1   
 38  33  44  1   
 39  34  35  1   
 40  34  36  1   
 41  34  37  1   
 42  37  38  1   
 43  37  39  1   
 44  37  40  1   
 45  40  41  1   
 46  41  42  1   
 47  41  43  1   
 48  41  44  1   
 49  44  45  1   
 50  44  46  1   
 51  47  48  1   
 52  49  50  1   
 53  49  51  1   
 54  49  52  1   
 55  52  53  1   
 56  52  54  1   
@<TRIPOS>SUBSTRUCTURE
  1 LIG  32 GROUP 4 **** **** 0
@<TRIPOS>PROPERTY_DATA
index	|	ligand603
Name	|	TAM-UNI-d1c-12
ChemPlp	|	-96.966
MM-GBSA Nwat=0	|	-31.8792
STDEV0	|	3.2478
MM-GBSA Nwat=30	|	-62.2384
STDEV30	|	5.9036
MM-GBSA Nwat=60	|	-64.9072
STDEV60	|	6.1665
ST.DEV < 10%	|	Y
RMSD LIG < 2	|	Y
DIST < 5	|	N
DIST < 3.5	|	N

# MOE 2019.01 (io_trps.svl 2018.10)

@<TRIPOS>MOLECULE
ligand090
53 55 1 0 0 
SMALL
USER_CHARGES


@<TRIPOS>ATOM
  1 C1      12.7060     5.2970    21.2480 C.3   1 LIG   0.0000 
  2 C5      13.4710     6.0670    22.3120 C.2   1 LIG   0.0000 
  3 O6      14.2000     6.9650    21.9940 O.2   1 LIG   0.0000 
  4 N7      13.3270     5.7360    23.6330 N.am  1 LIG   0.0000 
  5 C9      12.4330     4.6350    24.0220 C.3   1 LIG   0.0000 
  6 C12     12.9840     3.3220    23.4900 C.3   1 LIG   0.0000 
  7 C15     12.0740     2.1820    23.9140 C.2   1 LIG   0.0000 
  8 C16     11.0630     2.3310    24.7400 C.2   1 LIG   0.0000 
  9 C18     10.4100     0.9730    24.8960 C.3   1 LIG   0.0000 
 10 C21     11.2280     0.0430    24.0190 C.ar  1 LIG   0.0000 
 11 C22     11.1080    -1.3200    23.7620 C.ar  1 LIG   0.0000 
 12 C23     10.0180    -2.1670    24.3970 C.3   1 LIG   0.0000 
 13 N26      9.4710    -3.0930    23.3940 N.4   1 LIG   1.0000 
 14 C27      8.5390    -3.9890    24.1000 C.3   1 LIG   0.0000 
 15 C30      7.8680    -4.9710    23.1510 C.3   1 LIG   0.0000 
 16 N33      7.3890    -4.3020    21.9320 N.am  1 LIG   0.0000 
 17 C34      6.2310    -4.7890    21.3140 C.2   1 LIG   0.0000 
 18 O35      5.8160    -4.2640    20.3180 O.2   1 LIG   0.0000 
 19 C36      5.5000    -5.9840    21.9040 C.3   1 LIG   0.0000 
 20 CL39     4.2860    -5.4170    23.0760 Cl    1 LIG   0.0000 
 21 C40      8.0700    -3.1360    21.3460 C.3   1 LIG   0.0000 
 22 C43      8.7340    -2.2780    22.4140 C.3   1 LIG   0.0000 
 23 C46     12.0130    -1.9260    22.8960 C.ar  1 LIG   0.0000 
 24 C48     13.0110    -1.1510    22.3150 C.ar  1 LIG   0.0000 
 25 F49     13.8870    -1.7080    21.4840 F     1 LIG   0.0000 
 26 C50     13.1160     0.2090    22.5840 C.ar  1 LIG   0.0000 
 27 C52     12.2120     0.8210    23.4480 C.ar  1 LIG   0.0000 
 28 H16     10.7780     3.1820    25.1820 H     1 LIG   0.0000 
 29 H46     11.9480    -2.9030    22.6960 H     1 LIG   0.0000 
 30 H50     13.8410     0.7490    22.1560 H     1 LIG   0.0000 
 31 H11     12.1500     4.5890    21.6840 H     1 LIG   0.0000 
 32 H12     12.1110     5.9240    20.7450 H     1 LIG   0.0000 
 33 H13     13.3520     4.8700    20.6150 H     1 LIG   0.0000 
 34 H91     11.5230     4.7940    23.6400 H     1 LIG   0.0000 
 35 H92     12.3730     4.5910    25.0200 H     1 LIG   0.0000 
 36 H121    13.0280     3.3600    22.4910 H     1 LIG   0.0000 
 37 H122    13.9010     3.1720    23.8580 H     1 LIG   0.0000 
 38 H231    10.4020    -2.6890    25.1580 H     1 LIG   0.0000 
 39 H232     9.2880    -1.5730    24.7350 H     1 LIG   0.0000 
 40 H26     10.2010    -3.6130    22.9510 H     1 LIG   0.0000 
 41 H271     7.8340    -3.4370    24.5450 H     1 LIG   0.0000 
 42 H272     9.0460    -4.5030    24.7910 H     1 LIG   0.0000 
 43 H301     8.5280    -5.6780    22.8960 H     1 LIG   0.0000 
 44 H302     7.0910    -5.3930    23.6170 H     1 LIG   0.0000 
 45 H361     5.0450    -6.4920    21.1720 H     1 LIG   0.0000 
 46 H362     6.1560    -6.5810    22.3660 H     1 LIG   0.0000 
 47 H401     7.3990    -2.5800    20.8560 H     1 LIG   0.0000 
 48 H402     8.7690    -3.4560    20.7070 H     1 LIG   0.0000 
 49 H431     9.3740    -1.6490    21.9710 H     1 LIG   0.0000 
 50 H432     8.0290    -1.7550    22.8930 H     1 LIG   0.0000 
 51 H7      13.8300     6.2420    24.3330 H     1 LIG   0.0000 
 52 H181    10.4410     0.6750    25.8500 H     1 LIG   0.0000 
 53 H182     9.4590     1.0020    24.5870 H     1 LIG   0.0000 
@<TRIPOS>BOND
  1   1   2  1   
  2   1  31  1   
  3   1  32  1   
  4   1  33  1   
  5   2   3  2   
  6   2   4  am  
  7   4   5  1   
  8   4  51  1   
  9   5   6  1   
 10   5  34  1   
 11   5  35  1   
 12   6   7  1   
 13   6  36  1   
 14   6  37  1   
 15   7   8  2   
 16   7  27  1   
 17   8   9  1   
 18   8  28  1   
 19   9  10  1   
 20   9  52  1   
 21   9  53  1   
 22  10  11  ar  
 23  10  27  ar  
 24  11  12  1   
 25  11  23  ar  
 26  12  13  1   
 27  12  38  1   
 28  12  39  1   
 29  13  14  1   
 30  13  22  1   
 31  13  40  1   
 32  14  15  1   
 33  14  41  1   
 34  14  42  1   
 35  15  16  1   
 36  15  43  1   
 37  15  44  1   
 38  16  17  am  
 39  16  21  1   
 40  17  18  2   
 41  17  19  1   
 42  19  20  1   
 43  19  45  1   
 44  19  46  1   
 45  21  22  1   
 46  21  47  1   
 47  21  48  1   
 48  22  49  1   
 49  22  50  1   
 50  23  24  ar  
 51  23  29  1   
 52  24  25  1   
 53  24  26  ar  
 54  26  27  ar  
 55  26  30  1   
@<TRIPOS>SUBSTRUCTURE
  1 LIG  11 GROUP 4 **** **** 0
@<TRIPOS>PROPERTY_DATA
index	|	ligand090
Name	|	DAR-DIA-fb2-10
ChemPlp	|	-99.5404
MM-GBSA Nwat=0	|	-26.651
STDEV0	|	2.9077
MM-GBSA Nwat=30	|	-62.1481
STDEV30	|	5.6084
MM-GBSA Nwat=60	|	-70.2179
STDEV60	|	6.3686
ST.DEV < 10%	|	Y
RMSD LIG < 2	|	Y
DIST < 5	|	N
DIST < 3.5	|	N

# MOE 2019.01 (io_trps.svl 2018.10)

@<TRIPOS>MOLECULE
ligand222
55 58 1 0 0 
SMALL
USER_CHARGES


@<TRIPOS>ATOM
  1 C1      12.2360     7.4230    28.9750 C.2   1 LIG   0.0000 
  2 C4      12.3850     6.9670    27.7670 C.2   1 LIG   0.0000 
  3 C6      11.2200     7.0030    26.7920 C.2   1 LIG   0.0000 
  4 O7      10.1770     7.4970    27.1210 O.2   1 LIG   0.0000 
  5 N8      11.3630     6.4600    25.5090 N.am  1 LIG   0.0000 
  6 C9      12.4440     5.8000    24.7820 C.3   1 LIG   0.0000 
  7 C12     11.3220     5.0740    24.0720 C.3   1 LIG   0.0000 
  8 N14     11.6200     4.9260    22.6390 N.4   1 LIG   1.0000 
  9 C16     12.7000     3.9440    22.4620 C.3   1 LIG   0.0000 
 10 C19     12.1670     2.5490    22.7460 C.ar  1 LIG   0.0000 
 11 C20     12.9960     1.6320    23.3820 C.ar  1 LIG   0.0000 
 12 C22     12.5160     0.3520    23.6450 C.ar  1 LIG   0.0000 
 13 C24     11.2190     0.0210    23.2670 C.ar  1 LIG   0.0000 
 14 C26     10.3860     0.9370    22.6320 C.ar  1 LIG   0.0000 
 15 C27      9.0680     0.9470    22.1230 C.2   1 LIG   0.0000 
 16 C28      8.0980    -0.2230    22.1600 C.3   1 LIG   0.0000 
 17 C31      8.5170    -1.2610    21.1320 C.3   1 LIG   0.0000 
 18 N34      7.5350    -2.3550    21.1120 N.am  1 LIG   0.0000 
 19 C36      6.3040    -2.1600    20.5430 C.2   1 LIG   0.0000 
 20 O37      5.5030    -3.0530    20.5270 O.2   1 LIG   0.0000 
 21 C38      5.9700    -0.8760    19.9630 C.2   1 LIG   0.0000 
 22 C39      6.6800    -0.2470    18.9830 C.2   1 LIG   0.0000 
 23 C41      6.0050     0.9670    18.7160 C.2   1 LIG   0.0000 
 24 C43      4.9170     1.0300    19.5400 C.2   1 LIG   0.0000 
 25 N45      4.8980    -0.1030    20.3040 N.pl3 1 LIG   0.0000 
 26 C47      8.8000     2.1760    21.5920 C.2   1 LIG   0.0000 
 27 N49      9.9160     2.9440    21.7490 N.pl3 1 LIG   0.0000 
 28 C51     10.8740     2.1990    22.3760 C.ar  1 LIG   0.0000 
 29 C52     10.5140     6.3190    24.3320 C.3   1 LIG   0.0000 
 30 H20     13.9260     1.8880    23.6470 H     1 LIG   0.0000 
 31 H22     13.0980    -0.3220    24.1010 H     1 LIG   0.0000 
 32 H24     10.8760    -0.8990    23.4580 H     1 LIG   0.0000 
 33 H47      7.9410     2.4610    21.1670 H     1 LIG   0.0000 
 34 H49     10.0170     3.8940    21.4530 H     1 LIG   0.0000 
 35 H39      7.5130    -0.5780    18.5400 H     1 LIG   0.0000 
 36 H41      6.2760     1.6570    18.0450 H     1 LIG   0.0000 
 37 H43      4.2510     1.7750    19.5770 H     1 LIG   0.0000 
 38 H45      4.2130    -0.3280    20.9970 H     1 LIG   0.0000 
 39 H91     13.0430     5.2230    25.3370 H     1 LIG   0.0000 
 40 H92     12.9990     6.3980    24.2040 H     1 LIG   0.0000 
 41 H12     10.9920     4.2470    24.5280 H     1 LIG   0.0000 
 42 H141    11.9080     5.8080    22.2660 H     1 LIG   0.0000 
 43 H142    10.8010     4.6120    22.1590 H     1 LIG   0.0000 
 44 H161    13.4460     4.1510    23.0940 H     1 LIG   0.0000 
 45 H162    13.0380     3.9860    21.5220 H     1 LIG   0.0000 
 46 H281     7.1760     0.1010    21.9500 H     1 LIG   0.0000 
 47 H282     8.1070    -0.6350    23.0720 H     1 LIG   0.0000 
 48 H311     8.5610    -0.8360    20.2280 H     1 LIG   0.0000 
 49 H312     9.4170    -1.6250    21.3730 H     1 LIG   0.0000 
 50 H521    10.6110     7.0410    23.6470 H     1 LIG   0.0000 
 51 H522     9.5440     6.1660    24.5220 H     1 LIG   0.0000 
 52 H11     13.0020     7.3990    29.6160 H     1 LIG   0.0000 
 53 H12     11.3540     7.7970    29.2630 H     1 LIG   0.0000 
 54 H4      13.2670     6.5930    27.4790 H     1 LIG   0.0000 
 55 H34      7.7660    -3.2410    21.5120 H     1 LIG   0.0000 
@<TRIPOS>BOND
  1   1   2  2   
  2   1  52  1   
  3   1  53  1   
  4   2   3  1   
  5   2  54  1   
  6   3   4  2   
  7   3   5  am  
  8   5   6  1   
  9   5  29  1   
 10   6   7  1   
 11   6  39  1   
 12   6  40  1   
 13   7   8  1   
 14   7  29  1   
 15   7  41  1   
 16   8   9  1   
 17   8  42  1   
 18   8  43  1   
 19   9  10  1   
 20   9  44  1   
 21   9  45  1   
 22  10  11  ar  
 23  10  28  ar  
 24  11  12  ar  
 25  11  30  1   
 26  12  13  ar  
 27  12  31  1   
 28  13  14  ar  
 29  13  32  1   
 30  14  15  1   
 31  14  28  ar  
 32  15  16  1   
 33  15  26  2   
 34  16  17  1   
 35  16  46  1   
 36  16  47  1   
 37  17  18  1   
 38  17  48  1   
 39  17  49  1   
 40  18  19  am  
 41  18  55  1   
 42  19  20  2   
 43  19  21  1   
 44  21  22  2   
 45  21  25  1   
 46  22  23  1   
 47  22  35  1   
 48  23  24  2   
 49  23  36  1   
 50  24  25  1   
 51  24  37  1   
 52  25  38  1   
 53  26  27  1   
 54  26  33  1   
 55  27  28  1   
 56  27  34  1   
 57  29  50  1   
 58  29  51  1   
@<TRIPOS>SUBSTRUCTURE
  1 LIG  27 GROUP 4 **** **** 0
@<TRIPOS>PROPERTY_DATA
index	|	ligand222
Name	|	JAN-GHE-641-2
ChemPlp	|	-97.6366
MM-GBSA Nwat=0	|	-23.514
STDEV0	|	2.9572
MM-GBSA Nwat=30	|	-61.9271
STDEV30	|	4.9715
MM-GBSA Nwat=60	|	-76.283
STDEV60	|	6.655
ST.DEV < 10%	|	Y
RMSD LIG < 2	|	Y
DIST < 5	|	N
DIST < 3.5	|	N

# MOE 2019.01 (io_trps.svl 2018.10)

@<TRIPOS>MOLECULE
ligand470
52 54 1 0 0 
SMALL
NO_CHARGES


@<TRIPOS>ATOM
  1 C1       9.8190     6.5880    24.9640 C.3   1 LIG   0.0000 
  2 C5       9.7440     5.9730    23.5760 C.2   1 LIG   0.0000 
  3 O6       8.7710     6.1450    22.8960 O.2   1 LIG   0.0000 
  4 N7      10.7880     5.2230    23.1020 N.am  1 LIG   0.0000 
  5 C9      11.9800     5.0130    23.9360 C.3   1 LIG   0.0000 
  6 C12     12.7000     3.7530    23.4820 C.3   1 LIG   0.0000 
  7 C15     11.8790     2.5340    23.8690 C.2   1 LIG   0.0000 
  8 C16     10.7940     2.5400    24.6950 C.2   1 LIG   0.0000 
  9 N18     10.3380     1.2570    24.7900 N.pl3 1 LIG   0.0000 
 10 C20     11.1320     0.4480    24.0280 C.ar  1 LIG   0.0000 
 11 C21     11.0440    -0.9270    23.8280 C.ar  1 LIG   0.0000 
 12 C22      9.9580    -1.7580    24.4910 C.3   1 LIG   0.0000 
 13 C25      9.4790    -2.8300    23.5260 C.3   1 LIG   0.0000 
 14 C27      8.4740    -3.7040    24.2630 C.3   1 LIG   0.0000 
 15 C30      7.8650    -4.7690    23.3620 C.3   1 LIG   0.0000 
 16 N33      7.4500    -4.2180    22.0610 N.am  1 LIG   0.0000 
 17 C34      6.3370    -4.7820    21.4270 C.2   1 LIG   0.0000 
 18 O35      5.9720    -4.3570    20.3660 O.2   1 LIG   0.0000 
 19 C36      5.5900    -5.9320    22.0830 C.3   1 LIG   0.0000 
 20 CL39     4.3370    -5.2840    23.1680 Cl    1 LIG   0.0000 
 21 C40      8.1440    -3.1020    21.3960 C.3   1 LIG   0.0000 
 22 C43      8.7420    -2.1240    22.3970 C.3   1 LIG   0.0000 
 23 C46     11.9660    -1.5640    23.0050 C.ar  1 LIG   0.0000 
 24 C48     12.9700    -0.8280    22.3850 C.ar  1 LIG   0.0000 
 25 F49     13.8420    -1.4610    21.6050 F     1 LIG   0.0000 
 26 C50     13.0230     0.5460    22.6100 C.ar  1 LIG   0.0000 
 27 C52     12.1120     1.2110    23.4300 C.ar  1 LIG   0.0000 
 28 H16     10.4020     3.3400    25.1500 H     1 LIG   0.0000 
 29 H18      9.5510     0.9580    25.3300 H     1 LIG   0.0000 
 30 H46     11.9080    -2.5520    22.8590 H     1 LIG   0.0000 
 31 H50     13.7440     1.0780    22.1650 H     1 LIG   0.0000 
 32 H11     10.6920     6.3470    25.3890 H     1 LIG   0.0000 
 33 H12      9.7470     7.5830    24.8920 H     1 LIG   0.0000 
 34 H13      9.0680     6.2390    25.5240 H     1 LIG   0.0000 
 35 H91     11.7050     4.9140    24.8920 H     1 LIG   0.0000 
 36 H92     12.5930     5.7980    23.8450 H     1 LIG   0.0000 
 37 H121    12.8170     3.7750    22.4900 H     1 LIG   0.0000 
 38 H122    13.5960     3.7040    23.9230 H     1 LIG   0.0000 
 39 H221     9.1900    -1.1670    24.7400 H     1 LIG   0.0000 
 40 H222    10.3260    -2.1910    25.3150 H     1 LIG   0.0000 
 41 H25     10.2440    -3.3720    23.1770 H     1 LIG   0.0000 
 42 H271     7.7410    -3.1230    24.6160 H     1 LIG   0.0000 
 43 H272     8.9380    -4.1550    25.0260 H     1 LIG   0.0000 
 44 H301     8.5420    -5.4880    23.2070 H     1 LIG   0.0000 
 45 H302     7.0640    -5.1580    23.8170 H     1 LIG   0.0000 
 46 H361     5.1610    -6.4960    21.3770 H     1 LIG   0.0000 
 47 H362     6.2320    -6.4880    22.6100 H     1 LIG   0.0000 
 48 H401     7.4900    -2.6140    20.8180 H     1 LIG   0.0000 
 49 H402     8.8790    -3.4720    20.8270 H     1 LIG   0.0000 
 50 H431     9.3850    -1.5260    21.9180 H     1 LIG   0.0000 
 51 H432     8.0050    -1.5740    22.7890 H     1 LIG   0.0000 
 52 H7      10.7380     4.8180    22.1890 H     1 LIG   0.0000 
@<TRIPOS>BOND
  1   1   2  1   
  2   1  32  1   
  3   1  33  1   
  4   1  34  1   
  5   2   3  2   
  6   2   4  am  
  7   4   5  1   
  8   4  52  1   
  9   5   6  1   
 10   5  35  1   
 11   5  36  1   
 12   6   7  1   
 13   6  37  1   
 14   6  38  1   
 15   7   8  2   
 16   7  27  1   
 17   8   9  1   
 18   8  28  1   
 19   9  10  1   
 20   9  29  1   
 21  10  11  ar  
 22  10  27  ar  
 23  11  12  1   
 24  11  23  ar  
 25  12  13  1   
 26  12  39  1   
 27  12  40  1   
 28  13  14  1   
 29  13  22  1   
 30  13  41  1   
 31  14  15  1   
 32  14  42  1   
 33  14  43  1   
 34  15  16  1   
 35  15  44  1   
 36  15  45  1   
 37  16  17  am  
 38  16  21  1   
 39  17  18  2   
 40  17  19  1   
 41  19  20  1   
 42  19  46  1   
 43  19  47  1   
 44  21  22  1   
 45  21  48  1   
 46  21  49  1   
 47  22  50  1   
 48  22  51  1   
 49  23  24  ar  
 50  23  30  1   
 51  24  25  1   
 52  24  26  ar  
 53  26  27  ar  
 54  26  31  1   
@<TRIPOS>SUBSTRUCTURE
  1 LIG  11 GROUP 4 **** **** 0
@<TRIPOS>PROPERTY_DATA
index	|	ligand470
Name	|	NIR-THE-0d6-2
ChemPlp	|	-99.5297
MM-GBSA Nwat=0	|	-29.2517
STDEV0	|	3.6097
MM-GBSA Nwat=30	|	-61.3756
STDEV30	|	5.8915
MM-GBSA Nwat=60	|	-67.2153
STDEV60	|	5.6188
ST.DEV < 10%	|	Y
RMSD LIG < 2	|	Y
DIST < 5	|	N
DIST < 3.5	|	N

# MOE 2019.01 (io_trps.svl 2018.10)

@<TRIPOS>MOLECULE
ligand254
51 53 1 0 0 
SMALL
USER_CHARGES


@<TRIPOS>ATOM
  1 C1       3.9710     1.6240    19.5960 C.3   1 LIG   0.0000 
  2 N5       5.3680     1.8980    19.2290 N.am  1 LIG   0.0000 
  3 C7       6.1100     0.9400    18.5900 C.2   1 LIG   0.0000 
  4 O8       6.3600     1.0560    17.4220 O.2   1 LIG   0.0000 
  5 C9       6.6150    -0.2690    19.3600 C.3   1 LIG   0.0000 
  6 C12      5.5200    -1.3220    19.4250 C.3   1 LIG   0.0000 
  7 C15      6.0200    -2.5250    20.2070 C.2   1 LIG   0.0000 
  8 N16      5.5020    -3.7280    20.1590 N.2   1 LIG   0.0000 
  9 N17      6.1870    -4.5140    20.9550 N.pl3 1 LIG   0.0000 
 10 C18      5.8970    -5.9390    21.1710 C.3   1 LIG   0.0000 
 11 C22      7.2020    -3.8150    21.5380 C.2   1 LIG   0.0000 
 12 C23      7.1030    -2.5400    21.1130 C.2   1 LIG   0.0000 
 13 C24      8.0900    -1.5220    21.6640 C.3   1 LIG   0.0000 
 14 C27      9.3090    -2.2060    22.2590 C.3   1 LIG   0.0000 
 15 N30      8.8050    -3.0990    23.3080 N.4   1 LIG   1.0000 
 16 C31      9.7510    -3.7850    24.1950 C.3   1 LIG   0.0000 
 17 C34      9.0270    -4.8380    25.0080 C.3   1 LIG   0.0000 
 18 C35      8.4190    -4.3020    26.2940 C.2   1 LIG   0.0000 
 19 O36      8.6300    -3.1700    26.6310 O.2   1 LIG   0.0000 
 20 N37      7.6300    -5.1120    27.0680 N.am  1 LIG   0.0000 
 21 N39      7.3830    -4.7800    28.3880 N.am  1 LIG   0.0000 
 22 C41      6.6340    -5.6130    29.1750 C.2   1 LIG   0.0000 
 23 O42      6.4200    -5.3250    30.3200 O.2   1 LIG   0.0000 
 24 C43      6.0730    -6.9030    28.5990 C.3   1 LIG   0.0000 
 25 CL46     4.7810    -6.5210    27.4350 Cl    1 LIG   0.0000 
 26 S47      7.7560    -5.3200    23.8270 S.3   1 LIG   0.0000 
 27 C48      8.3020    -4.2100    22.5150 C.3   1 LIG   0.0000 
 28 H11      3.5830     2.4250    20.0520 H     1 LIG   0.0000 
 29 H12      3.4440     1.4210    18.7710 H     1 LIG   0.0000 
 30 H13      3.9370     0.8390    20.2150 H     1 LIG   0.0000 
 31 H91      6.8670     0.0070    20.2870 H     1 LIG   0.0000 
 32 H92      7.4150    -0.6490    18.8950 H     1 LIG   0.0000 
 33 H121     4.7170    -0.9390    19.8810 H     1 LIG   0.0000 
 34 H122     5.2740    -1.6050    18.4980 H     1 LIG   0.0000 
 35 H241     7.6390    -0.9820    22.3740 H     1 LIG   0.0000 
 36 H242     8.3840    -0.9190    20.9220 H     1 LIG   0.0000 
 37 H271     9.7900    -2.7320    21.5580 H     1 LIG   0.0000 
 38 H272     9.9300    -1.5270    22.6510 H     1 LIG   0.0000 
 39 H30      8.0700    -2.6650    23.8290 H     1 LIG   0.0000 
 40 H311    10.1690    -3.1180    24.8120 H     1 LIG   0.0000 
 41 H312    10.4630    -4.2220    23.6450 H     1 LIG   0.0000 
 42 H34      9.6340    -5.6080    25.2030 H     1 LIG   0.0000 
 43 H431     6.8030    -7.4050    28.1340 H     1 LIG   0.0000 
 44 H432     5.7010    -7.4650    29.3380 H     1 LIG   0.0000 
 45 H48      9.0580    -4.6320    22.0140 H     1 LIG   0.0000 
 46 H5       5.7770     2.7840    19.4470 H     1 LIG   0.0000 
 47 H182     6.5580    -6.3190    21.8190 H     1 LIG   0.0000 
 48 H37      7.2330    -5.9420    26.6790 H     1 LIG   0.0000 
 49 H39      7.7520    -3.9310    28.7670 H     1 LIG   0.0000 
 50 H181     4.9730    -6.0390    21.5390 H     1 LIG   0.0000 
 51 H182     5.9640    -6.4290    20.3010 H     1 LIG   0.0000 
@<TRIPOS>BOND
  1   1   2  1   
  2   1  28  1   
  3   1  29  1   
  4   1  30  1   
  5   2   3  am  
  6   2  46  1   
  7   3   4  2   
  8   3   5  1   
  9   5   6  1   
 10   5  31  1   
 11   5  32  1   
 12   6   7  1   
 13   6  33  1   
 14   6  34  1   
 15   7   8  2   
 16   7  12  1   
 17   8   9  1   
 18   9  10  1   
 19   9  11  1   
 20  10  47  1   
 21  10  50  1   
 22  10  51  1   
 23  11  12  2   
 24  11  27  1   
 25  12  13  1   
 26  13  14  1   
 27  13  35  1   
 28  13  36  1   
 29  14  15  1   
 30  14  37  1   
 31  14  38  1   
 32  15  16  1   
 33  15  27  1   
 34  15  39  1   
 35  16  17  1   
 36  16  40  1   
 37  16  41  1   
 38  17  18  1   
 39  17  26  1   
 40  17  42  1   
 41  18  19  2   
 42  18  20  am  
 43  20  21  1   
 44  20  48  1   
 45  21  22  am  
 46  21  49  1   
 47  22  23  2   
 48  22  24  1   
 49  24  25  1   
 50  24  43  1   
 51  24  44  1   
 52  26  27  1   
 53  27  45  1   
@<TRIPOS>SUBSTRUCTURE
  1 LIG  11 GROUP 4 **** **** 0
@<TRIPOS>PROPERTY_DATA
index	|	ligand254
Name	|	JOH-PRI-13a-1
ChemPlp	|	-92.3082
MM-GBSA Nwat=0	|	-26.12
STDEV0	|	4.2635
MM-GBSA Nwat=30	|	-59.7969
STDEV30	|	5.4691
MM-GBSA Nwat=60	|	-69.9862
STDEV60	|	5.1417
ST.DEV < 10%	|	Y
RMSD LIG < 2	|	Y
DIST < 5	|	N
DIST < 3.5	|	N

# MOE 2019.01 (io_trps.svl 2018.10)

@<TRIPOS>MOLECULE
ligand564
54 56 1 0 0 
SMALL
NO_CHARGES


@<TRIPOS>ATOM
  1 C1      10.5780     6.1050    25.3420 C.3   1 LIG   0.0000 
  2 H2      10.2970     5.8360    24.4200 H     1 LIG   0.0000 
  3 H3      10.3420     5.3790    25.9880 H     1 LIG   0.0000 
  4 H4      10.1070     6.9480    25.6010 H     1 LIG   0.0000 
  5 C5      12.0800     6.3360    25.3660 C.2   1 LIG   0.0000 
  6 O6      12.6200     6.6680    26.3850 O.2   1 LIG   0.0000 
  7 N7      12.8180     6.1650    24.2240 N.am  1 LIG   0.0000 
  8 H8      13.8060     6.3170    24.2400 H     1 LIG   0.0000 
  9 C9      12.1570     5.7580    22.9760 C.3   1 LIG   0.0000 
 10 H10     12.2470     6.4880    22.2980 H     1 LIG   0.0000 
 11 H11     11.1880     5.5850    23.1530 H     1 LIG   0.0000 
 12 C12     12.8100     4.4920    22.4460 C.3   1 LIG   0.0000 
 13 H13     12.4920     4.3190    21.5140 H     1 LIG   0.0000 
 14 H14     13.8030     4.6050    22.4450 H     1 LIG   0.0000 
 15 C15     12.4340     3.3180    23.3360 C.2   1 LIG   0.0000 
 16 C16     11.5120     3.4270    24.2760 C.2   1 LIG   0.0000 
 17 H17     11.0470     4.3010    24.4130 H     1 LIG   0.0000 
 18 N18     11.1790     2.3320    25.0830 N.pl3 1 LIG   0.0000 
 19 H19     10.8690     2.4620    26.0250 H     1 LIG   0.0000 
 20 C20     11.2910     1.0490    24.5310 C.ar  1 LIG   0.0000 
 21 C21     10.4730    -0.0040    24.9280 C.ar  1 LIG   0.0000 
 22 H22      9.7800     0.1530    25.6320 H     1 LIG   0.0000 
 23 C23     10.6000    -1.2710    24.3670 C.ar  1 LIG   0.0000 
 24 C24      9.7130    -2.4300    24.7920 C.3   1 LIG   0.0000 
 25 H25     10.2220    -3.0290    25.4110 H     1 LIG   0.0000 
 26 H26      8.9040    -2.0760    25.2610 H     1 LIG   0.0000 
 27 N27      9.2980    -3.1900    23.6060 N.3   1 LIG   0.0000 
 28 C28      8.4510    -4.2950    24.0820 C.3   1 LIG   0.0000 
 29 H29      7.6740    -3.9150    24.5840 H     1 LIG   0.0000 
 30 H30      8.9890    -4.8780    24.6920 H     1 LIG   0.0000 
 31 C31      7.9290    -5.1380    22.9280 C.3   1 LIG   0.0000 
 32 H32      8.6720    -5.7090    22.5800 H     1 LIG   0.0000 
 33 H33      7.1880    -5.7220    23.2620 H     1 LIG   0.0000 
 34 N34      7.4180    -4.2970    21.8340 N.am  1 LIG   0.0000 
 35 C35      6.3520    -4.7650    21.0560 C.2   1 LIG   0.0000 
 36 O36      5.9230    -4.0920    20.1600 O.2   1 LIG   0.0000 
 37 C37      5.7380    -6.1240    21.3480 C.3   1 LIG   0.0000 
 38 H38      4.8770    -6.2150    20.8480 H     1 LIG   0.0000 
 39 H39      6.3700    -6.8440    21.0590 H     1 LIG   0.0000 
 40 CL40     5.4280    -6.2730    23.0940 Cl    1 LIG   0.0000 
 41 C41      7.9790    -2.9720    21.5240 C.3   1 LIG   0.0000 
 42 H42      7.2680    -2.4070    21.1060 H     1 LIG   0.0000 
 43 H43      8.7380    -3.0810    20.8820 H     1 LIG   0.0000 
 44 C44      8.4880    -2.2820    22.7810 C.3   1 LIG   0.0000 
 45 H45      9.0480    -1.4970    22.5160 H     1 LIG   0.0000 
 46 H46      7.7050    -1.9670    23.3170 H     1 LIG   0.0000 
 47 C47     11.5660    -1.4780    23.3890 C.ar  1 LIG   0.0000 
 48 H48     11.6690    -2.3830    22.9760 H     1 LIG   0.0000 
 49 C49     12.3910    -0.4350    22.9810 C.ar  1 LIG   0.0000 
 50 H50     13.0830    -0.5920    22.2770 H     1 LIG   0.0000 
 51 C51     12.2530     0.8250    23.5530 C.ar  1 LIG   0.0000 
 52 C52     13.1400     1.9870    23.1360 C.3   1 LIG   0.0000 
 53 H53     13.3770     1.8860    22.1700 H     1 LIG   0.0000 
 54 H54     13.9740     1.9750    23.6870 H     1 LIG   0.0000 
@<TRIPOS>BOND
  1   1   2  1   
  2   1   3  1   
  3   1   4  1   
  4   1   5  1   
  5   5   6  2   
  6   5   7  am  
  7   7   8  1   
  8   7   9  1   
  9   9  10  1   
 10   9  11  1   
 11   9  12  1   
 12  12  13  1   
 13  12  14  1   
 14  12  15  1   
 15  15  16  2   
 16  15  52  1   
 17  16  17  1   
 18  16  18  1   
 19  18  19  1   
 20  18  20  1   
 21  20  21  ar  
 22  20  51  ar  
 23  21  22  1   
 24  21  23  ar  
 25  23  24  1   
 26  23  47  ar  
 27  24  25  1   
 28  24  26  1   
 29  24  27  1   
 30  27  28  1   
 31  27  44  1   
 32  28  29  1   
 33  28  30  1   
 34  28  31  1   
 35  31  32  1   
 36  31  33  1   
 37  31  34  1   
 38  34  35  am  
 39  34  41  1   
 40  35  36  2   
 41  35  37  1   
 42  37  38  1   
 43  37  39  1   
 44  37  40  1   
 45  41  42  1   
 46  41  43  1   
 47  41  44  1   
 48  44  45  1   
 49  44  46  1   
 50  47  48  1   
 51  47  49  ar  
 52  49  50  1   
 53  49  51  ar  
 54  51  52  1   
 55  52  53  1   
 56  52  54  1   
@<TRIPOS>SUBSTRUCTURE
  1 LIG  21 GROUP 4 **** **** 0
@<TRIPOS>PROPERTY_DATA
index	|	ligand564
Name	|	SEL-UNI-cd3-8
ChemPlp	|	-101.923
MM-GBSA Nwat=0	|	-34.533
STDEV0	|	2.5218
MM-GBSA Nwat=30	|	-59.2271
STDEV30	|	5.4849
MM-GBSA Nwat=60	|	-68.7771
STDEV60	|	5.9552
ST.DEV < 10%	|	Y
RMSD LIG < 2	|	Y
DIST < 5	|	N
DIST < 3.5	|	N

# MOE 2019.01 (io_trps.svl 2018.10)

@<TRIPOS>MOLECULE
ligand556
55 58 1 0 0 
SMALL
NO_CHARGES


@<TRIPOS>ATOM
  1 C1       9.0920    -5.0320    27.4080 C.1   1 LIG   0.0000 
  2 C3       8.5060    -4.9700    26.3740 C.1   1 LIG   0.0000 
  3 C4       7.7580    -4.8900    25.0530 C.ar  1 LIG   0.0000 
  4 N5       6.6290    -5.5850    24.8540 N.ar  1 LIG   0.0000 
  5 C6       5.9830    -5.5030    23.6810 C.ar  1 LIG   0.0000 
  6 N8       6.4660    -4.7230    22.7030 N.ar  1 LIG   0.0000 
  7 C9       7.5920    -4.0060    22.8600 C.ar  1 LIG   0.0000 
  8 C10      8.2680    -4.0790    24.0530 C.ar  1 LIG   0.0000 
  9 N11      9.3730    -3.2810    23.9830 N.2   1 LIG   0.0000 
 10 C12      9.3930    -2.7280    22.7950 C.2   1 LIG   0.0000 
 11 C13     10.4560    -1.7630    22.2960 C.3   1 LIG   0.0000 
 12 C14     11.7900    -2.0320    22.9790 C.3   1 LIG   0.0000 
 13 C17     12.8070    -1.0460    22.4190 C.3   1 LIG   0.0000 
 14 C20     12.4240     0.4040    22.6810 C.3   1 LIG   0.0000 
 15 N23     11.0120     0.6640    22.3530 N.am  1 LIG   0.0000 
 16 C24     10.6720     1.9230    21.8470 C.2   1 LIG   0.0000 
 17 O25      9.5320     2.1680    21.5650 O.2   1 LIG   0.0000 
 18 C26     11.7460     2.9810    21.6550 C.3   1 LIG   0.0000 
 19 CL29    12.6020     3.2440    23.1940 Cl    1 LIG   0.0000 
 20 C30      9.9530    -0.3450    22.5300 C.3   1 LIG   0.0000 
 21 N33      8.3140    -3.1540    22.0800 N.pl3 1 LIG   0.0000 
 22 C34      7.9860    -2.7590    20.7020 C.3   1 LIG   0.0000 
 23 C37      6.4900    -2.5160    20.5870 C.2   1 LIG   0.0000 
 24 O38      5.7920    -3.3230    20.0360 O.2   1 LIG   0.0000 
 25 C39      5.8780    -1.2530    21.1690 C.3   1 LIG   0.0000 
 26 N42      5.9650    -0.1660    20.1820 N.pl3 1 LIG   0.0000 
 27 C43      4.9600     0.8000    20.0760 C.2   1 LIG   0.0000 
 28 C45      4.7650     1.4460    18.9420 C.2   1 LIG   0.0000 
 29 N46      3.7820     2.4380    18.8340 N.pl3 1 LIG   0.0000 
 30 C49      5.6090     1.1020    17.8120 C.2   1 LIG   0.0000 
 31 N51      6.6860     0.4410    17.9600 N.2   1 LIG   0.0000 
 32 C52      7.1160    -0.0590    19.2740 C.3   1 LIG   0.0000 
 33 H6       5.1420    -6.0240    23.5370 H     1 LIG   0.0000 
 34 H13     10.5710    -1.9000    21.3120 H     1 LIG   0.0000 
 35 H141    12.0850    -2.9690    22.7920 H     1 LIG   0.0000 
 36 H142    11.6990    -1.9020    23.9670 H     1 LIG   0.0000 
 37 H171    13.6940    -1.2250    22.8440 H     1 LIG   0.0000 
 38 H172    12.8770    -1.1850    21.4310 H     1 LIG   0.0000 
 39 H201    12.5740     0.6090    23.6480 H     1 LIG   0.0000 
 40 H202    13.0010     0.9980    22.1210 H     1 LIG   0.0000 
 41 H261    12.3970     2.6730    20.9600 H     1 LIG   0.0000 
 42 H262    11.3230     3.8370    21.3590 H     1 LIG   0.0000 
 43 H301     9.2160    -0.1540    21.8810 H     1 LIG   0.0000 
 44 H302     9.6000    -0.2790    23.4630 H     1 LIG   0.0000 
 45 H341     8.2550    -3.4890    20.0730 H     1 LIG   0.0000 
 46 H342     8.4790    -1.9200    20.4700 H     1 LIG   0.0000 
 47 H391     4.9190    -1.4210    21.3960 H     1 LIG   0.0000 
 48 H392     6.3760    -0.9920    21.9960 H     1 LIG   0.0000 
 49 H521     7.7860     0.5730    19.6640 H     1 LIG   0.0000 
 50 H522     7.5340    -0.9600    19.1630 H     1 LIG   0.0000 
 51 H43      4.3830     1.0040    20.8670 H     1 LIG   0.0000 
 52 H461     3.2100     2.6620    19.6220 H     1 LIG   0.0000 
 53 H462     3.6530     2.9220    17.9680 H     1 LIG   0.0000 
 54 H49      5.3370     1.3920    16.8940 H     1 LIG   0.0000 
 55 H1       9.5850    -5.0850    28.2760 H     1 LIG   0.0000 
@<TRIPOS>BOND
  1   1   2  3   
  2   1  55  1   
  3   2   3  1   
  4   3   4  ar  
  5   3   8  ar  
  6   4   5  ar  
  7   5   6  ar  
  8   5  33  1   
  9   6   7  ar  
 10   7   8  ar  
 11   7  21  1   
 12   8   9  1   
 13   9  10  2   
 14  10  11  1   
 15  10  21  1   
 16  11  12  1   
 17  11  20  1   
 18  11  34  1   
 19  12  13  1   
 20  12  35  1   
 21  12  36  1   
 22  13  14  1   
 23  13  37  1   
 24  13  38  1   
 25  14  15  1   
 26  14  39  1   
 27  14  40  1   
 28  15  16  am  
 29  15  20  1   
 30  16  17  2   
 31  16  18  1   
 32  18  19  1   
 33  18  41  1   
 34  18  42  1   
 35  20  43  1   
 36  20  44  1   
 37  21  22  1   
 38  22  23  1   
 39  22  45  1   
 40  22  46  1   
 41  23  24  2   
 42  23  25  1   
 43  25  26  1   
 44  25  47  1   
 45  25  48  1   
 46  26  27  1   
 47  26  32  1   
 48  27  28  2   
 49  27  51  1   
 50  28  29  1   
 51  28  30  1   
 52  29  52  1   
 53  29  53  1   
 54  30  31  2   
 55  30  54  1   
 56  31  32  1   
 57  32  49  1   
 58  32  50  1   
@<TRIPOS>SUBSTRUCTURE
  1 LIG  21 GROUP 4 **** **** 0
@<TRIPOS>PROPERTY_DATA
index	|	ligand556
Name	|	SEL-UNI-49a-7
ChemPlp	|	-96.7862
MM-GBSA Nwat=0	|	-38.3107
STDEV0	|	3.8215
MM-GBSA Nwat=30	|	-57.2152
STDEV30	|	5.155
MM-GBSA Nwat=60	|	-60.5788
STDEV60	|	4.9309
ST.DEV < 10%	|	Y
RMSD LIG < 2	|	Y
DIST < 5	|	N
DIST < 3.5	|	N

# MOE 2019.01 (io_trps.svl 2018.10)

@<TRIPOS>MOLECULE
ligand388
50 51 1 0 0 
SMALL
USER_CHARGES


@<TRIPOS>ATOM
  1 C1      12.1480     7.4720    26.5430 C.3   1 LIG   0.0000 
  2 N5      12.4720     7.2050    25.1340 N.4   1 LIG   1.0000 
  3 C8      12.4250     5.7570    24.8870 C.3   1 LIG   0.0000 
  4 C11     12.8110     5.4760    23.4440 C.3   1 LIG   0.0000 
  5 S14     13.0010     3.6920    23.2060 S.3   1 LIG   0.0000 
  6 C15     11.8160     2.5480    23.9560 C.2   1 LIG   0.0000 
  7 O16     10.9660     2.9630    24.6950 O.2   1 LIG   0.0000 
  8 C17     11.8930     1.1300    23.6650 C.ar  1 LIG   0.0000 
  9 C18     12.9230     0.6520    22.8610 C.ar  1 LIG   0.0000 
 10 C20     12.9870    -0.7100    22.5870 C.ar  1 LIG   0.0000 
 11 C22     12.0420    -1.5900    23.1040 C.ar  1 LIG   0.0000 
 12 C24     11.0220    -1.0890    23.9060 C.ar  1 LIG   0.0000 
 13 C25      9.9810    -2.0370    24.4800 C.3   1 LIG   0.0000 
 14 N28      9.5020    -2.9370    23.4210 N.4   1 LIG   1.0000 
 15 C30      8.5970    -3.9080    24.0580 C.3   1 LIG   0.0000 
 16 C33      7.9960    -4.8730    23.0480 C.3   1 LIG   0.0000 
 17 N36      7.5140    -4.1680    21.8490 N.am  1 LIG   0.0000 
 18 C37      6.3950    -4.6780    21.1790 C.2   1 LIG   0.0000 
 19 O38      5.9790    -4.1240    20.1990 O.2   1 LIG   0.0000 
 20 C39      5.7080    -5.9320    21.6930 C.3   1 LIG   0.0000 
 21 CL42     4.4760    -5.4830    22.8970 Cl    1 LIG   0.0000 
 22 C43      8.1530    -2.9450    21.3380 C.3   1 LIG   0.0000 
 23 C46      8.7500    -2.1100    22.4620 C.3   1 LIG   0.0000 
 24 C49     10.9360     0.2690    24.1930 C.ar  1 LIG   0.0000 
 25 H18     13.6060     1.2790    22.4850 H     1 LIG   0.0000 
 26 H20     13.7230    -1.0620    22.0100 H     1 LIG   0.0000 
 27 H22     12.0950    -2.5680    22.9030 H     1 LIG   0.0000 
 28 H49     10.1990     0.6210    24.7700 H     1 LIG   0.0000 
 29 H11     12.1810     8.4580    26.7110 H     1 LIG   0.0000 
 30 H12     11.2310     7.1300    26.7450 H     1 LIG   0.0000 
 31 H13     12.8130     7.0120    27.1310 H     1 LIG   0.0000 
 32 H51     11.8070     7.6650    24.5460 H     1 LIG   0.0000 
 33 H52     13.3900     7.5480    24.9320 H     1 LIG   0.0000 
 34 H81     11.4980     5.4200    25.0550 H     1 LIG   0.0000 
 35 H82     13.0650     5.2930    25.4990 H     1 LIG   0.0000 
 36 H111    12.0960     5.8200    22.8340 H     1 LIG   0.0000 
 37 H112    13.6760     5.9340    23.2350 H     1 LIG   0.0000 
 38 H251    10.3900    -2.5760    25.2160 H     1 LIG   0.0000 
 39 H252     9.2120    -1.5090    24.8410 H     1 LIG   0.0000 
 40 H28     10.2660    -3.4010    22.9720 H     1 LIG   0.0000 
 41 H301     7.8570    -3.4120    24.5110 H     1 LIG   0.0000 
 42 H302     9.1120    -4.4320    24.7380 H     1 LIG   0.0000 
 43 H331     8.6940    -5.5350    22.7760 H     1 LIG   0.0000 
 44 H332     7.2280    -5.3520    23.4730 H     1 LIG   0.0000 
 45 H391     5.2710    -6.4090    20.9310 H     1 LIG   0.0000 
 46 H392     6.3850    -6.5330    22.1180 H     1 LIG   0.0000 
 47 H431     7.4680    -2.3980    20.8570 H     1 LIG   0.0000 
 48 H432     8.8810    -3.2010    20.7020 H     1 LIG   0.0000 
 49 H461     9.3690    -1.4320    22.0660 H     1 LIG   0.0000 
 50 H462     8.0110    -1.6440    22.9460 H     1 LIG   0.0000 
@<TRIPOS>BOND
  1   1   2  1   
  2   1  29  1   
  3   1  30  1   
  4   1  31  1   
  5   2   3  1   
  6   2  32  1   
  7   2  33  1   
  8   3   4  1   
  9   3  34  1   
 10   3  35  1   
 11   4   5  1   
 12   4  36  1   
 13   4  37  1   
 14   5   6  1   
 15   6   7  2   
 16   6   8  1   
 17   8   9  ar  
 18   8  24  ar  
 19   9  10  ar  
 20   9  25  1   
 21  10  11  ar  
 22  10  26  1   
 23  11  12  ar  
 24  11  27  1   
 25  12  13  1   
 26  12  24  ar  
 27  13  14  1   
 28  13  38  1   
 29  13  39  1   
 30  14  15  1   
 31  14  23  1   
 32  14  40  1   
 33  15  16  1   
 34  15  41  1   
 35  15  42  1   
 36  16  17  1   
 37  16  43  1   
 38  16  44  1   
 39  17  18  am  
 40  17  22  1   
 41  18  19  2   
 42  18  20  1   
 43  20  21  1   
 44  20  45  1   
 45  20  46  1   
 46  22  23  1   
 47  22  47  1   
 48  22  48  1   
 49  23  49  1   
 50  23  50  1   
 51  24  28  1   
@<TRIPOS>SUBSTRUCTURE
  1 LIG  12 GROUP 4 **** **** 0
@<TRIPOS>PROPERTY_DATA
index	|	ligand388
Name	|	MAK-UNK-cd9-1
ChemPlp	|	-96.8503
MM-GBSA Nwat=0	|	-22.8207
STDEV0	|	3.0719
MM-GBSA Nwat=30	|	-56.6853
STDEV30	|	5.3914
MM-GBSA Nwat=60	|	-62.0533
STDEV60	|	5.4697
ST.DEV < 10%	|	Y
RMSD LIG < 2	|	Y
DIST < 5	|	N
DIST < 3.5	|	N

# MOE 2019.01 (io_trps.svl 2018.10)

@<TRIPOS>MOLECULE
ligand409
53 55 1 0 0 
SMALL
USER_CHARGES


@<TRIPOS>ATOM
  1 C1       5.6700    -5.0860    22.5930 C.3   1 LIG   0.0000 
  2 C5       5.8660    -3.8620    21.7130 C.2   1 LIG   0.0000 
  3 N6       6.3780    -2.7200    22.2710 N.pl3 1 LIG   0.0000 
  4 C7       6.5730    -1.5910    21.5170 C.2   1 LIG   0.0000 
  5 C8       7.1430    -0.3370    22.1600 C.3   1 LIG   0.0000 
  6 N11      8.4410    -0.6480    22.7750 N.4   1 LIG   1.0000 
  7 C13      9.4670    -0.4540    21.7370 C.3   1 LIG   0.0000 
  8 C16     10.8690    -0.7020    22.2710 C.3   1 LIG   0.0000 
  9 N19     11.0750    -0.0480    23.5720 N.am  1 LIG   0.0000 
 10 C20     12.3540     0.4290    23.8850 C.2   1 LIG   0.0000 
 11 O21     12.5520     0.9670    24.9390 O.2   1 LIG   0.0000 
 12 C22     13.4910     0.2650    22.8890 C.3   1 LIG   0.0000 
 13 CL25    13.5250    -1.4140    22.2990 Cl    1 LIG   0.0000 
 14 C26      9.9890     0.1350    24.5490 C.3   1 LIG   0.0000 
 15 C29      8.6430     0.3210    23.8650 C.3   1 LIG   0.0000 
 16 C32      6.2550    -1.5950    20.1840 C.2   1 LIG   0.0000 
 17 C33      6.4590    -0.3590    19.3230 C.3   1 LIG   0.0000 
 18 C36      5.1920     0.4800    19.3330 C.3   1 LIG   0.0000 
 19 C39      5.1560     1.3300    20.5930 C.3   1 LIG   0.0000 
 20 C42      3.8790     2.1540    20.6130 C.2   1 LIG   0.0000 
 21 C43      2.8880     2.1690    19.5950 C.2   1 LIG   0.0000 
 22 C45      1.8160     2.9820    19.8110 C.2   1 LIG   0.0000 
 23 S47      2.1200     3.6960    21.3300 S.3   1 LIG   0.0000 
 24 C48      3.6130     2.9580    21.6810 C.2   1 LIG   0.0000 
 25 C50      5.7250    -2.7900    19.6280 C.2   1 LIG   0.0000 
 26 O51      5.4320    -2.8210    18.4440 O.2   1 LIG   0.0000 
 27 N52      5.5520    -3.8880    20.4300 N.2   1 LIG   0.0000 
 28 H43      2.9720     1.6140    18.7670 H     1 LIG   0.0000 
 29 H45      1.0280     3.1270    19.2130 H     1 LIG   0.0000 
 30 H48      4.1760     3.0860    22.4970 H     1 LIG   0.0000 
 31 H11      5.9620    -4.8760    23.5260 H     1 LIG   0.0000 
 32 H12      4.7040    -5.3440    22.5950 H     1 LIG   0.0000 
 33 H13      6.2170    -5.8440    22.2360 H     1 LIG   0.0000 
 34 H81      7.2650     0.3690    21.4620 H     1 LIG   0.0000 
 35 H82      6.5120    -0.0070    22.8620 H     1 LIG   0.0000 
 36 H11      8.4570    -1.5860    23.1220 H     1 LIG   0.0000 
 37 H131     9.4110     0.4860    21.4000 H     1 LIG   0.0000 
 38 H132     9.2900    -1.0880    20.9840 H     1 LIG   0.0000 
 39 H161    11.0070    -1.6870    22.3770 H     1 LIG   0.0000 
 40 H162    11.5340    -0.3410    21.6170 H     1 LIG   0.0000 
 41 H221    13.3500     0.8860    22.1180 H     1 LIG   0.0000 
 42 H222    14.3590     0.4790    23.3360 H     1 LIG   0.0000 
 43 H261    10.1860     0.9430    25.1040 H     1 LIG   0.0000 
 44 H262     9.9450    -0.6720    25.1380 H     1 LIG   0.0000 
 45 H291     7.9170     0.2020    24.5420 H     1 LIG   0.0000 
 46 H292     8.5980     1.2460    23.4870 H     1 LIG   0.0000 
 47 H331     6.6680    -0.6370    18.3860 H     1 LIG   0.0000 
 48 H332     7.2190     0.1800    19.6880 H     1 LIG   0.0000 
 49 H361     4.3940    -0.1210    19.3130 H     1 LIG   0.0000 
 50 H362     5.1810     1.0760    18.5290 H     1 LIG   0.0000 
 51 H391     5.1820     0.7350    21.3960 H     1 LIG   0.0000 
 52 H392     5.9480     1.9410    20.6060 H     1 LIG   0.0000 
 53 H        6.6140    -2.7090    23.2420 H     1 LIG   0.0000 
@<TRIPOS>BOND
  1   1   2  1   
  2   1  31  1   
  3   1  32  1   
  4   1  33  1   
  5   2   3  1   
  6   2  27  2   
  7   3   4  1   
  8   3  53  1   
  9   4   5  1   
 10   4  16  2   
 11   5   6  1   
 12   5  34  1   
 13   5  35  1   
 14   6   7  1   
 15   6  15  1   
 16   6  36  1   
 17   7   8  1   
 18   7  37  1   
 19   7  38  1   
 20   8   9  1   
 21   8  39  1   
 22   8  40  1   
 23   9  10  am  
 24   9  14  1   
 25  10  11  2   
 26  10  12  1   
 27  12  13  1   
 28  12  41  1   
 29  12  42  1   
 30  14  15  1   
 31  14  43  1   
 32  14  44  1   
 33  15  45  1   
 34  15  46  1   
 35  16  17  1   
 36  16  25  1   
 37  17  18  1   
 38  17  47  1   
 39  17  48  1   
 40  18  19  1   
 41  18  49  1   
 42  18  50  1   
 43  19  20  1   
 44  19  51  1   
 45  19  52  1   
 46  20  21  1   
 47  20  24  2   
 48  21  22  2   
 49  21  28  1   
 50  22  23  1   
 51  22  29  1   
 52  23  24  1   
 53  24  30  1   
 54  25  26  2   
 55  25  27  1   
@<TRIPOS>SUBSTRUCTURE
  1 LIG   5 GROUP 4 **** **** 0
@<TRIPOS>PROPERTY_DATA
index	|	ligand409
Name	|	MAK-UNK-e4a-25
ChemPlp	|	-93.0589
MM-GBSA Nwat=0	|	-26.4392
STDEV0	|	3.4356
MM-GBSA Nwat=30	|	-55.4515
STDEV30	|	5.1653
MM-GBSA Nwat=60	|	-61.1779
STDEV60	|	5.7896
ST.DEV < 10%	|	Y
RMSD LIG < 2	|	Y
DIST < 5	|	N
DIST < 3.5	|	N

# MOE 2019.01 (io_trps.svl 2018.10)

@<TRIPOS>MOLECULE
ligand083
57 60 1 0 0 
SMALL
NO_CHARGES


@<TRIPOS>ATOM
  1 C1      13.2900    -1.3980    22.2200 C.3   1 LIG   0.0000 
  2 O5      13.1760    -0.1130    22.8140 O.3   1 LIG   0.0000 
  3 C6      12.0600     0.6220    22.6220 C.ar  1 LIG   0.0000 
  4 C7      12.0240     1.9270    23.1030 C.ar  1 LIG   0.0000 
  5 C9      10.8860     2.7060    22.9160 C.ar  1 LIG   0.0000 
  6 C10     10.8700     4.1310    23.4490 C.3   1 LIG   0.0000 
  7 C11     11.0780     4.0300    24.9490 C.3   1 LIG   0.0000 
  8 N14     11.1150     5.4060    25.4530 N.am  1 LIG   0.0000 
  9 C15     10.0400     6.0230    26.1030 C.2   1 LIG   0.0000 
 10 O16      9.0180     5.4180    26.2800 O.2   1 LIG   0.0000 
 11 C17     10.1660     7.4590    26.5860 C.3   1 LIG   0.0000 
 12 CL20    11.7710     7.7010    27.3160 Cl    1 LIG   0.0000 
 13 C21     12.4000     6.0660    25.1930 C.3   1 LIG   0.0000 
 14 C24     12.7390     5.8310    23.7290 C.ar  1 LIG   0.0000 
 15 C25     13.8080     6.5460    23.2110 C.ar  1 LIG   0.0000 
 16 C27     14.2000     6.3860    21.8860 C.ar  1 LIG   0.0000 
 17 C29     13.5090     5.4980    21.0670 C.ar  1 LIG   0.0000 
 18 C31     12.4370     4.7800    21.5860 C.ar  1 LIG   0.0000 
 19 C33     12.0430     4.9350    22.9100 C.ar  1 LIG   0.0000 
 20 C34      9.7900     2.1710    22.2470 C.ar  1 LIG   0.0000 
 21 N35      8.5910     2.7600    21.9570 N.pl3 1 LIG   0.0000 
 22 C37      7.8130     1.8640    21.2820 C.2   1 LIG   0.0000 
 23 C39      8.5230     0.7060    21.1470 C.2   1 LIG   0.0000 
 24 C40      8.0330    -0.5580    20.4590 C.3   1 LIG   0.0000 
 25 C43      6.5680    -0.3980    20.0890 C.3   1 LIG   0.0000 
 26 N46      6.0400    -1.6840    19.6100 N.am  1 LIG   0.0000 
 27 C48      5.9310    -2.7430    20.4720 C.2   1 LIG   0.0000 
 28 C49      6.3540    -2.5890    21.9240 C.3   1 LIG   0.0000 
 29 O53      5.5000    -3.7930    20.0810 O.2   1 LIG   0.0000 
 30 C54      9.7850     0.8850    21.7570 C.ar  1 LIG   0.0000 
 31 C55     10.9380     0.1260    21.9580 C.ar  1 LIG   0.0000 
 32 H7      12.8150     2.3040    23.5840 H     1 LIG   0.0000 
 33 H55     10.9610    -0.8120    21.6130 H     1 LIG   0.0000 
 34 H25     14.3050     7.1850    23.7980 H     1 LIG   0.0000 
 35 H27     14.9720     6.9080    21.5240 H     1 LIG   0.0000 
 36 H29     13.7830     5.3760    20.1130 H     1 LIG   0.0000 
 37 H31     11.9410     4.1430    20.9960 H     1 LIG   0.0000 
 38 H35      8.3270     3.6940    22.1990 H     1 LIG   0.0000 
 39 H37      6.8860     2.0270    20.9460 H     1 LIG   0.0000 
 40 H11     14.1730    -1.8000    22.4620 H     1 LIG   0.0000 
 41 H12     12.5530    -1.9860    22.5530 H     1 LIG   0.0000 
 42 H13     13.2250    -1.3130    21.2250 H     1 LIG   0.0000 
 43 H10     10.0020     4.5810    23.2390 H     1 LIG   0.0000 
 44 H111    10.3240     3.5270    25.3700 H     1 LIG   0.0000 
 45 H112    11.9410     3.5650    25.1480 H     1 LIG   0.0000 
 46 H171    10.0540     8.0820    25.8120 H     1 LIG   0.0000 
 47 H172     9.4580     7.6450    27.2680 H     1 LIG   0.0000 
 48 H211    13.1110     5.6740    25.7760 H     1 LIG   0.0000 
 49 H212    12.3240     7.0470    25.3730 H     1 LIG   0.0000 
 50 H401     8.1380    -1.3360    21.0780 H     1 LIG   0.0000 
 51 H402     8.5710    -0.7160    19.6310 H     1 LIG   0.0000 
 52 H431     6.0510    -0.1050    20.8930 H     1 LIG   0.0000 
 53 H432     6.4790     0.2880    19.3670 H     1 LIG   0.0000 
 54 H491     6.6860    -1.6580    22.0770 H     1 LIG   0.0000 
 55 H492     5.5710    -2.7660    22.5200 H     1 LIG   0.0000 
 56 H493     7.0840    -3.2410    22.1290 H     1 LIG   0.0000 
 57 H46      5.7620    -1.7860    18.6550 H     1 LIG   0.0000 
@<TRIPOS>BOND
  1   1   2  1   
  2   1  40  1   
  3   1  41  1   
  4   1  42  1   
  5   2   3  1   
  6   3   4  ar  
  7   3  31  ar  
  8   4   5  ar  
  9   4  32  1   
 10   5   6  1   
 11   5  20  ar  
 12   6   7  1   
 13   6  19  1   
 14   6  43  1   
 15   7   8  1   
 16   7  44  1   
 17   7  45  1   
 18   8   9  am  
 19   8  13  1   
 20   9  10  2   
 21   9  11  1   
 22  11  12  1   
 23  11  46  1   
 24  11  47  1   
 25  13  14  1   
 26  13  48  1   
 27  13  49  1   
 28  14  15  ar  
 29  14  19  ar  
 30  15  16  ar  
 31  15  34  1   
 32  16  17  ar  
 33  16  35  1   
 34  17  18  ar  
 35  17  36  1   
 36  18  19  ar  
 37  18  37  1   
 38  20  21  1   
 39  20  30  ar  
 40  21  22  1   
 41  21  38  1   
 42  22  23  2   
 43  22  39  1   
 44  23  24  1   
 45  23  30  1   
 46  24  25  1   
 47  24  50  1   
 48  24  51  1   
 49  25  26  1   
 50  25  52  1   
 51  25  53  1   
 52  26  27  am  
 53  26  57  1   
 54  27  28  1   
 55  27  29  2   
 56  28  54  1   
 57  28  55  1   
 58  28  56  1   
 59  30  31  ar  
 60  31  33  1   
@<TRIPOS>SUBSTRUCTURE
  1 LIG   5 GROUP 4 **** **** 0
@<TRIPOS>PROPERTY_DATA
index	|	ligand083
Name	|	DAR-DIA-cab-4
ChemPlp	|	-97.4159
MM-GBSA Nwat=0	|	-33.2622
STDEV0	|	2.5057
MM-GBSA Nwat=30	|	-54.8176
STDEV30	|	4.3624
MM-GBSA Nwat=60	|	-62.0166
STDEV60	|	4.6855
ST.DEV < 10%	|	Y
RMSD LIG < 2	|	Y
DIST < 5	|	N
DIST < 3.5	|	N

# MOE 2019.01 (io_trps.svl 2018.10)

@<TRIPOS>MOLECULE
ligand371
59 61 1 0 0 
SMALL
USER_CHARGES


@<TRIPOS>ATOM
  1 C1      13.5380     5.0370    22.9030 C.3   1 LIG   0.0000 
  2 C5      12.5230     4.0820    23.5120 C.3   1 LIG   0.0000 
  3 N8      13.0510     2.7110    23.4640 N.pl3 1 LIG   0.0000 
  4 C10     12.2550     1.6720    22.9670 C.ar  1 LIG   0.0000 
  5 C11     12.7970     0.3920    22.9120 C.ar  1 LIG   0.0000 
  6 C13     12.0170    -0.6500    22.4190 C.ar  1 LIG   0.0000 
  7 C15     10.7160    -0.4020    21.9920 C.ar  1 LIG   0.0000 
  8 N16      9.9310    -1.4510    21.4960 N.pl3 1 LIG   0.0000 
  9 C18      8.5270    -1.2100    21.1310 C.3   1 LIG   0.0000 
 10 C21      7.6970    -2.4370    21.4700 C.ar  1 LIG   0.0000 
 11 C22      6.5220    -2.7310    20.7870 C.ar  1 LIG   0.0000 
 12 N24      5.8000    -3.8190    21.0980 N.ar  1 LIG   0.0000 
 13 C25      6.1820    -4.6590    22.0710 C.ar  1 LIG   0.0000 
 14 C26      5.3370    -5.8810    22.3940 C.3   1 LIG   0.0000 
 15 C30      7.3500    -4.4120    22.7860 C.ar  1 LIG   0.0000 
 16 C31      7.8170    -5.3390    23.8970 C.3   1 LIG   0.0000 
 17 N34      7.4280    -4.7780    25.1990 N.4   1 LIG   1.0000 
 18 C36      6.0700    -5.2670    25.4890 C.3   1 LIG   0.0000 
 19 C39      5.5710    -4.7870    26.8440 C.3   1 LIG   0.0000 
 20 N42      6.5980    -4.9510    27.8850 N.am  1 LIG   0.0000 
 21 C43      6.1840    -5.2340    29.1920 C.2   1 LIG   0.0000 
 22 O44      6.9980    -5.3720    30.0630 O.2   1 LIG   0.0000 
 23 C45      4.7030    -5.3650    29.5090 C.3   1 LIG   0.0000 
 24 CL48     4.2450    -7.0850    29.4950 Cl    1 LIG   0.0000 
 25 C49      8.0390    -4.8410    27.6030 C.3   1 LIG   0.0000 
 26 C52      8.3730    -5.3100    26.1950 C.3   1 LIG   0.0000 
 27 C55      8.1160    -3.2920    22.4840 C.ar  1 LIG   0.0000 
 28 C57     10.2330     0.9000    22.0720 C.ar  1 LIG   0.0000 
 29 N59     10.9990     1.8930    22.5490 N.ar  1 LIG   0.0000 
 30 H11     13.7320     0.2220    23.2220 H     1 LIG   0.0000 
 31 H13     12.3910    -1.5760    22.3720 H     1 LIG   0.0000 
 32 H57      9.3000     1.0990    21.7700 H     1 LIG   0.0000 
 33 H22      6.2100    -2.1240    20.0560 H     1 LIG   0.0000 
 34 H55      8.9580    -3.1030    22.9900 H     1 LIG   0.0000 
 35 H11     13.1790     5.9700    22.9360 H     1 LIG   0.0000 
 36 H12     14.3920     4.9900    23.4210 H     1 LIG   0.0000 
 37 H13     13.7090     4.7790    21.9520 H     1 LIG   0.0000 
 38 H51     12.3520     4.3400    24.4630 H     1 LIG   0.0000 
 39 H52     11.6690     4.1290    22.9940 H     1 LIG   0.0000 
 40 H181     8.4650    -1.0260    20.1500 H     1 LIG   0.0000 
 41 H182     8.1810    -0.4220    21.6410 H     1 LIG   0.0000 
 42 H261     5.7630    -6.3930    23.1390 H     1 LIG   0.0000 
 43 H262     4.4210    -5.5890    22.6710 H     1 LIG   0.0000 
 44 H263     5.2700    -6.4630    21.5840 H     1 LIG   0.0000 
 45 H311     7.3940    -6.2380    23.7810 H     1 LIG   0.0000 
 46 H312     8.8120    -5.4310    23.8580 H     1 LIG   0.0000 
 47 H34      7.4520    -3.7790    25.1800 H     1 LIG   0.0000 
 48 H361     6.0770    -6.2670    25.4830 H     1 LIG   0.0000 
 49 H362     5.4480    -4.9340    24.7800 H     1 LIG   0.0000 
 50 H391     5.3280    -3.8200    26.7770 H     1 LIG   0.0000 
 51 H392     4.7630    -5.3180    27.0990 H     1 LIG   0.0000 
 52 H451     4.5200    -4.9790    30.4130 H     1 LIG   0.0000 
 53 H452     4.1700    -4.8730    28.8210 H     1 LIG   0.0000 
 54 H491     8.5410    -5.4020    28.2600 H     1 LIG   0.0000 
 55 H492     8.3160    -3.8850    27.7010 H     1 LIG   0.0000 
 56 H521     9.2950    -5.0010    25.9620 H     1 LIG   0.0000 
 57 H522     8.3400    -6.3090    26.1710 H     1 LIG   0.0000 
 58 H8      13.9780     2.5200    23.7860 H     1 LIG   0.0000 
 59 H16     10.3250    -2.3640    21.3900 H     1 LIG   0.0000 
@<TRIPOS>BOND
  1   1   2  1   
  2   1  35  1   
  3   1  36  1   
  4   1  37  1   
  5   2   3  1   
  6   2  38  1   
  7   2  39  1   
  8   3   4  1   
  9   3  58  1   
 10   4   5  ar  
 11   4  29  ar  
 12   5   6  ar  
 13   5  30  1   
 14   6   7  ar  
 15   6  31  1   
 16   7   8  1   
 17   7  28  ar  
 18   8   9  1   
 19   8  59  1   
 20   9  10  1   
 21   9  40  1   
 22   9  41  1   
 23  10  11  ar  
 24  10  27  ar  
 25  11  12  ar  
 26  11  33  1   
 27  12  13  ar  
 28  13  14  1   
 29  13  15  ar  
 30  14  42  1   
 31  14  43  1   
 32  14  44  1   
 33  15  16  1   
 34  15  27  ar  
 35  16  17  1   
 36  16  45  1   
 37  16  46  1   
 38  17  18  1   
 39  17  26  1   
 40  17  47  1   
 41  18  19  1   
 42  18  48  1   
 43  18  49  1   
 44  19  20  1   
 45  19  50  1   
 46  19  51  1   
 47  20  21  am  
 48  20  25  1   
 49  21  22  2   
 50  21  23  1   
 51  23  24  1   
 52  23  52  1   
 53  23  53  1   
 54  25  26  1   
 55  25  54  1   
 56  25  55  1   
 57  26  56  1   
 58  26  57  1   
 59  27  34  1   
 60  28  29  ar  
 61  28  32  1   
@<TRIPOS>SUBSTRUCTURE
  1 LIG  27 GROUP 4 **** **** 0
@<TRIPOS>PROPERTY_DATA
index	|	ligand371
Name	|	MAK-UNK-af8-27
ChemPlp	|	-97.1969
MM-GBSA Nwat=0	|	-31.1683
STDEV0	|	3.1547
MM-GBSA Nwat=30	|	-54.7809
STDEV30	|	4.5511
MM-GBSA Nwat=60	|	-64.417
STDEV60	|	4.8746
ST.DEV < 10%	|	Y
RMSD LIG < 2	|	Y
DIST < 5	|	N
DIST < 3.5	|	N

# MOE 2019.01 (io_trps.svl 2018.10)

@<TRIPOS>MOLECULE
ligand500
54 57 1 0 0 
SMALL
NO_CHARGES


@<TRIPOS>ATOM
  1 O1       5.6790    -3.0740    20.1640 O.2   1 LIG   0.0000 
  2 C2       6.3480    -2.5800    21.0280 C.2   1 LIG   0.0000 
  3 C3       6.8420    -3.4320    22.1860 C.3   1 LIG   0.0000 
  4 C6       8.3530    -3.3050    22.3010 C.3   1 LIG   0.0000 
  5 N9       8.7330    -3.2370    23.7200 N.pl3 1 LIG   0.0000 
  6 C10      9.6750    -2.4050    24.2420 C.2   1 LIG   0.0000 
  7 C11     10.5050    -1.3980    23.4630 C.3   1 LIG   0.0000 
  8 C12     11.8010    -2.0320    22.9740 C.3   1 LIG   0.0000 
  9 C15     12.5680    -0.9770    22.1880 C.3   1 LIG   0.0000 
 10 C18     12.9240     0.2390    23.0320 C.3   1 LIG   0.0000 
 11 N21     11.7730     0.7160    23.8160 N.am  1 LIG   0.0000 
 12 C22     11.6540     2.0910    24.0470 C.2   1 LIG   0.0000 
 13 O23     10.7260     2.5160    24.6780 O.2   1 LIG   0.0000 
 14 C24     12.7010     3.0470    23.4980 C.3   1 LIG   0.0000 
 15 CL27    12.3740     4.6920    24.0940 Cl    1 LIG   0.0000 
 16 C28     10.7460    -0.1900    24.3580 C.3   1 LIG   0.0000 
 17 N31      9.7500    -2.6190    25.5350 N.2   1 LIG   0.0000 
 18 C32      8.8530    -3.5940    25.8650 C.ar  1 LIG   0.0000 
 19 C33      8.5480    -4.1780    27.0900 C.ar  1 LIG   0.0000 
 20 C35      7.5810    -5.1730    27.1860 C.ar  1 LIG   0.0000 
 21 C37      6.9170    -5.5820    26.0340 C.ar  1 LIG   0.0000 
 22 C39      7.2350    -4.9880    24.8160 C.ar  1 LIG   0.0000 
 23 C41      8.2020    -3.9920    24.7230 C.ar  1 LIG   0.0000 
 24 N42      6.6680    -1.2490    20.9720 N.am  1 LIG   0.0000 
 25 C44      6.2130    -0.4640    19.9050 C.ar  1 LIG   0.0000 
 26 C45      5.6530     0.7840    20.1480 C.ar  1 LIG   0.0000 
 27 C47      5.2010     1.5620    19.0880 C.ar  1 LIG   0.0000 
 28 C49      5.3210     1.0620    17.7950 C.ar  1 LIG   0.0000 
 29 N51      5.8620    -0.1460    17.5770 N.ar  1 LIG   0.0000 
 30 C52      6.3030    -0.9070    18.5900 C.ar  1 LIG   0.0000 
 31 H33      9.0300    -3.8790    27.9140 H     1 LIG   0.0000 
 32 H35      7.3650    -5.5880    28.0700 H     1 LIG   0.0000 
 33 H37      6.2190    -6.2970    26.0800 H     1 LIG   0.0000 
 34 H39      6.7570    -5.2850    23.9890 H     1 LIG   0.0000 
 35 H45      5.5750     1.1230    21.0860 H     1 LIG   0.0000 
 36 H47      4.7980     2.4620    19.2510 H     1 LIG   0.0000 
 37 H49      5.0010     1.6080    17.0220 H     1 LIG   0.0000 
 38 H52      6.7020    -1.8030    18.3960 H     1 LIG   0.0000 
 39 H31      6.6000    -4.3880    22.0240 H     1 LIG   0.0000 
 40 H32      6.4160    -3.1200    23.0360 H     1 LIG   0.0000 
 41 H61      8.7870    -4.1000    21.8770 H     1 LIG   0.0000 
 42 H62      8.6540    -2.4730    21.8350 H     1 LIG   0.0000 
 43 H11      9.9780    -1.1020    22.6670 H     1 LIG   0.0000 
 44 H121    11.5960    -2.8130    22.3840 H     1 LIG   0.0000 
 45 H122    12.3460    -2.3380    23.7540 H     1 LIG   0.0000 
 46 H151    13.4130    -1.3860    21.8420 H     1 LIG   0.0000 
 47 H152    12.0040    -0.6780    21.4180 H     1 LIG   0.0000 
 48 H181    13.6630    -0.0080    23.6600 H     1 LIG   0.0000 
 49 H182    13.2320     0.9740    22.4280 H     1 LIG   0.0000 
 50 H241    13.6090     2.7570    23.8020 H     1 LIG   0.0000 
 51 H242    12.6670     3.0410    22.4990 H     1 LIG   0.0000 
 52 H281     9.8880     0.3160    24.4520 H     1 LIG   0.0000 
 53 H282    11.0430    -0.5110    25.2570 H     1 LIG   0.0000 
 54 H42      7.2260    -0.8380    21.6930 H     1 LIG   0.0000 
@<TRIPOS>BOND
  1   1   2  2   
  2   2   3  1   
  3   2  24  am  
  4   3   4  1   
  5   3  39  1   
  6   3  40  1   
  7   4   5  1   
  8   4  41  1   
  9   4  42  1   
 10   5   6  1   
 11   5  23  1   
 12   6   7  1   
 13   6  17  2   
 14   7   8  1   
 15   7  16  1   
 16   7  43  1   
 17   8   9  1   
 18   8  44  1   
 19   8  45  1   
 20   9  10  1   
 21   9  46  1   
 22   9  47  1   
 23  10  11  1   
 24  10  48  1   
 25  10  49  1   
 26  11  12  am  
 27  11  16  1   
 28  12  13  2   
 29  12  14  1   
 30  14  15  1   
 31  14  50  1   
 32  14  51  1   
 33  16  52  1   
 34  16  53  1   
 35  17  18  1   
 36  18  19  ar  
 37  18  23  ar  
 38  19  20  ar  
 39  19  31  1   
 40  20  21  ar  
 41  20  32  1   
 42  21  22  ar  
 43  21  33  1   
 44  22  23  ar  
 45  22  34  1   
 46  24  25  1   
 47  24  54  1   
 48  25  26  ar  
 49  25  30  ar  
 50  26  27  ar  
 51  26  35  1   
 52  27  28  ar  
 53  27  36  1   
 54  28  29  ar  
 55  28  37  1   
 56  29  30  ar  
 57  30  38  1   
@<TRIPOS>SUBSTRUCTURE
  1 LIG   7 GROUP 4 **** **** 0
@<TRIPOS>PROPERTY_DATA
index	|	ligand500
Name	|	PAU-UNI-b33-1
ChemPlp	|	-92.5256
MM-GBSA Nwat=0	|	-35.085
STDEV0	|	3.1955
MM-GBSA Nwat=30	|	-54.5534
STDEV30	|	4.4053
MM-GBSA Nwat=60	|	-56.6876
STDEV60	|	4.486
ST.DEV < 10%	|	Y
RMSD LIG < 2	|	Y
DIST < 5	|	N
DIST < 3.5	|	N

# MOE 2019.01 (io_trps.svl 2018.10)

@<TRIPOS>MOLECULE
ligand225
52 54 1 0 0 
SMALL
NO_CHARGES


@<TRIPOS>ATOM
  1 C1       4.4560    -6.5980    22.2970 C.2   1 LIG   0.0000 
  2 H2       4.0410    -7.3860    22.7510 H     1 LIG   0.0000 
  3 H3       3.9390    -6.0890    21.6080 H     1 LIG   0.0000 
  4 C4       5.6660    -6.2340    22.6010 C.2   1 LIG   0.0000 
  5 H5       6.1830    -6.7430    23.2900 H     1 LIG   0.0000 
  6 C6       6.2960    -5.0360    21.9100 C.2   1 LIG   0.0000 
  7 O7       5.8010    -4.5900    20.9120 O.2   1 LIG   0.0000 
  8 N8       7.4540    -4.4520    22.4380 N.am  1 LIG   0.0000 
  9 C9       8.0430    -5.0150    23.6640 C.3   1 LIG   0.0000 
 10 H10      8.7250    -5.7010    23.4110 H     1 LIG   0.0000 
 11 H11      7.3210    -5.4460    24.2040 H     1 LIG   0.0000 
 12 C12      8.7140    -3.9380    24.5050 C.3   1 LIG   0.0000 
 13 H13      8.0080    -3.3940    24.9580 H     1 LIG   0.0000 
 14 H14      9.2900    -4.3770    25.1940 H     1 LIG   0.0000 
 15 N15      9.5470    -3.0480    23.6820 N.3   1 LIG   0.0000 
 16 C16     10.1110    -2.0360    24.5850 C.3   1 LIG   0.0000 
 17 H17     10.4950    -2.4860    25.3910 H     1 LIG   0.0000 
 18 H18      9.3900    -1.4030    24.8680 H     1 LIG   0.0000 
 19 C19     11.2060    -1.2670    23.8640 C.ar  1 LIG   0.0000 
 20 C20     12.0390    -1.9510    22.9860 C.ar  1 LIG   0.0000 
 21 H21     11.9170    -2.9310    22.8320 H     1 LIG   0.0000 
 22 C22     13.0440    -1.2540    22.3220 C.ar  1 LIG   0.0000 
 23 H23     13.6540    -1.7290    21.6870 H     1 LIG   0.0000 
 24 C24     13.1920     0.1100    22.5520 C.ar  1 LIG   0.0000 
 25 H25     13.9150     0.6090    22.0740 H     1 LIG   0.0000 
 26 C26     12.3590     0.7980    23.4300 C.ar  1 LIG   0.0000 
 27 C27     12.2260     2.1270    23.8910 C.2   1 LIG   0.0000 
 28 C28     13.0960     3.3000    23.4670 C.3   1 LIG   0.0000 
 29 H29     13.1390     3.3400    22.4690 H     1 LIG   0.0000 
 30 H30     14.0180     3.1820    23.8360 H     1 LIG   0.0000 
 31 C31     12.4980     4.5920    24.0000 C.3   1 LIG   0.0000 
 32 H32     11.5860     4.7220    23.6130 H     1 LIG   0.0000 
 33 H33     12.4340     4.5430    24.9970 H     1 LIG   0.0000 
 34 N34     13.3580     5.7230    23.6210 N.am  1 LIG   0.0000 
 35 H35     13.8390     6.2440    24.3250 H     1 LIG   0.0000 
 36 C36     13.4990     6.0630    22.3010 C.2   1 LIG   0.0000 
 37 C37     12.7670     5.2710    21.2300 C.3   1 LIG   0.0000 
 38 H38     12.2320     4.5440    21.6600 H     1 LIG   0.0000 
 39 H39     12.1560     5.8800    20.7240 H     1 LIG   0.0000 
 40 H40     13.4310     4.8680    20.6000 H     1 LIG   0.0000 
 41 O41     14.2000     6.9860    21.9910 O.2   1 LIG   0.0000 
 42 C42     11.1910     2.1940    24.7780 C.2   1 LIG   0.0000 
 43 H43     10.8750     3.0130    25.2560 H     1 LIG   0.0000 
 44 N44     10.6670     0.9400    24.8940 N.pl3 1 LIG   0.0000 
 45 H45      9.8970     0.6800    25.4770 H     1 LIG   0.0000 
 46 C46     11.3700     0.0960    24.0800 C.ar  1 LIG   0.0000 
 47 C47      8.6890    -2.3320    22.7240 C.3   1 LIG   0.0000 
 48 H48      9.2470    -1.6780    22.2140 H     1 LIG   0.0000 
 49 H49      7.9780    -1.8420    23.2290 H     1 LIG   0.0000 
 50 C50      8.0270    -3.2890    21.7430 C.3   1 LIG   0.0000 
 51 H51      7.2980    -2.8060    21.2580 H     1 LIG   0.0000 
 52 H52      8.7110    -3.6060    21.0860 H     1 LIG   0.0000 
@<TRIPOS>BOND
  1   1   2  1   
  2   1   3  1   
  3   1   4  2   
  4   4   5  1   
  5   4   6  1   
  6   6   7  2   
  7   6   8  am  
  8   8   9  1   
  9   8  50  1   
 10   9  10  1   
 11   9  11  1   
 12   9  12  1   
 13  12  13  1   
 14  12  14  1   
 15  12  15  1   
 16  15  16  1   
 17  15  47  1   
 18  16  17  1   
 19  16  18  1   
 20  16  19  1   
 21  19  20  ar  
 22  19  46  ar  
 23  20  21  1   
 24  20  22  ar  
 25  22  23  1   
 26  22  24  ar  
 27  24  25  1   
 28  24  26  ar  
 29  26  27  1   
 30  26  46  ar  
 31  27  28  1   
 32  27  42  2   
 33  28  29  1   
 34  28  30  1   
 35  28  31  1   
 36  31  32  1   
 37  31  33  1   
 38  31  34  1   
 39  34  35  1   
 40  34  36  am  
 41  36  37  1   
 42  36  41  2   
 43  37  38  1   
 44  37  39  1   
 45  37  40  1   
 46  42  43  1   
 47  42  44  1   
 48  44  45  1   
 49  44  46  1   
 50  47  48  1   
 51  47  49  1   
 52  47  50  1   
 53  50  51  1   
 54  50  52  1   
@<TRIPOS>SUBSTRUCTURE
  1 LIG  19 GROUP 4 **** **** 0
@<TRIPOS>PROPERTY_DATA
index	|	ligand225
Name	|	JAN-GHE-641-5
ChemPlp	|	-93.6959
MM-GBSA Nwat=0	|	-23.3858
STDEV0	|	2.5142
MM-GBSA Nwat=30	|	-52.5941
STDEV30	|	4.8543
MM-GBSA Nwat=60	|	-60.4098
STDEV60	|	5.1645
ST.DEV < 10%	|	Y
RMSD LIG < 2	|	Y
DIST < 5	|	N
DIST < 3.5	|	N

# MOE 2019.01 (io_trps.svl 2018.10)

@<TRIPOS>MOLECULE
ligand061
48 50 1 0 0 
SMALL
USER_CHARGES


@<TRIPOS>ATOM
  1 O1       5.4990    -4.6410    21.2740 O.2   1 LIG   0.0000 
  2 C2       6.2710    -5.0920    22.0740 C.2   1 LIG   0.0000 
  3 C3       6.1020    -6.5180    22.5740 C.3   1 LIG   0.0000 
  4 CL6      4.9760    -6.5340    23.9520 Cl    1 LIG   0.0000 
  5 N7       7.3280    -4.3050    22.5490 N.am  1 LIG   0.0000 
  6 C8       8.2530    -4.9020    23.5260 C.3   1 LIG   0.0000 
  7 C11      8.8010    -3.8630    24.4940 C.3   1 LIG   0.0000 
  8 N14      9.1990    -2.6240    23.8040 N.4   1 LIG   1.0000 
  9 C15      9.7260    -1.7110    24.8280 C.3   1 LIG   0.0000 
 10 C18     10.8980    -0.9300    24.2560 C.ar  1 LIG   0.0000 
 11 C19     11.2350     0.3090    24.7900 C.ar  1 LIG   0.0000 
 12 C21     12.3100     1.0100    24.2540 C.ar  1 LIG   0.0000 
 13 C23     13.0470     0.4860    23.1970 C.ar  1 LIG   0.0000 
 14 C25     12.6930    -0.7550    22.6760 C.ar  1 LIG   0.0000 
 15 CL26    13.6290    -1.4320    21.3220 Cl    1 LIG   0.0000 
 16 C27     11.6210    -1.4720    23.1980 C.ar  1 LIG   0.0000 
 17 C29      8.0020    -2.0400    23.1810 C.3   1 LIG   0.0000 
 18 C32      7.4820    -2.9240    22.0580 C.3   1 LIG   0.0000 
 19 C33      6.1740    -2.3280    21.5620 C.3   1 LIG   0.0000 
 20 C36      6.4660    -1.2680    20.5130 C.ar  1 LIG   0.0000 
 21 C37      5.8000    -1.3040    19.2920 C.ar  1 LIG   0.0000 
 22 C39      6.0710    -0.3330    18.3340 C.ar  1 LIG   0.0000 
 23 C41      7.0010     0.6660    18.6010 C.ar  1 LIG   0.0000 
 24 C43      7.6600     0.6940    19.8240 C.ar  1 LIG   0.0000 
 25 C45      7.3990    -0.2730    20.7900 C.ar  1 LIG   0.0000 
 26 H19     10.7100     0.6920    25.5500 H     1 LIG   0.0000 
 27 H21     12.5580     1.9010    24.6340 H     1 LIG   0.0000 
 28 H23     13.8190     0.9940    22.8160 H     1 LIG   0.0000 
 29 H27     11.3740    -2.3630    22.8180 H     1 LIG   0.0000 
 30 H37      5.1310    -2.0240    19.1050 H     1 LIG   0.0000 
 31 H39      5.5970    -0.3520    17.4540 H     1 LIG   0.0000 
 32 H41      7.1960     1.3650    17.9120 H     1 LIG   0.0000 
 33 H43      8.3280     1.4140    20.0110 H     1 LIG   0.0000 
 34 H45      7.8740    -0.2520    21.6700 H     1 LIG   0.0000 
 35 H31      5.7360    -7.0880    21.8380 H     1 LIG   0.0000 
 36 H32      6.9890    -6.8770    22.8630 H     1 LIG   0.0000 
 37 H81      9.0160    -5.3210    23.0360 H     1 LIG   0.0000 
 38 H82      7.7650    -5.6030    24.0470 H     1 LIG   0.0000 
 39 H111     8.0950    -3.6450    25.1680 H     1 LIG   0.0000 
 40 H112     9.6000    -4.2440    24.9590 H     1 LIG   0.0000 
 41 H14      9.8960    -2.8160    23.1130 H     1 LIG   0.0000 
 42 H151    10.0320    -2.2390    25.6200 H     1 LIG   0.0000 
 43 H152     9.0080    -1.0750    25.1090 H     1 LIG   0.0000 
 44 H291     8.2330    -1.1410    22.8080 H     1 LIG   0.0000 
 45 H292     7.2880    -1.9390    23.8750 H     1 LIG   0.0000 
 46 H32      8.1440    -2.9190    21.3090 H     1 LIG   0.0000 
 47 H331     5.6100    -3.0490    21.1600 H     1 LIG   0.0000 
 48 H332     5.6860    -1.9120    22.3300 H     1 LIG   0.0000 
@<TRIPOS>BOND
  1   1   2  2   
  2   2   3  1   
  3   2   5  am  
  4   3   4  1   
  5   3  35  1   
  6   3  36  1   
  7   5   6  1   
  8   5  18  1   
  9   6   7  1   
 10   6  37  1   
 11   6  38  1   
 12   7   8  1   
 13   7  39  1   
 14   7  40  1   
 15   8   9  1   
 16   8  17  1   
 17   8  41  1   
 18   9  10  1   
 19   9  42  1   
 20   9  43  1   
 21  10  11  ar  
 22  10  16  ar  
 23  11  12  ar  
 24  11  26  1   
 25  12  13  ar  
 26  12  27  1   
 27  13  14  ar  
 28  13  28  1   
 29  14  15  1   
 30  14  16  ar  
 31  16  29  1   
 32  17  18  1   
 33  17  44  1   
 34  17  45  1   
 35  18  19  1   
 36  18  46  1   
 37  19  20  1   
 38  19  47  1   
 39  19  48  1   
 40  20  21  ar  
 41  20  25  ar  
 42  21  22  ar  
 43  21  30  1   
 44  22  23  ar  
 45  22  31  1   
 46  23  24  ar  
 47  23  32  1   
 48  24  25  ar  
 49  24  33  1   
 50  25  34  1   
@<TRIPOS>SUBSTRUCTURE
  1 LIG  17 GROUP 4 **** **** 0
@<TRIPOS>PROPERTY_DATA
index	|	ligand061
Name	|	DAN-LON-a5f-10
ChemPlp	|	-94.3122
MM-GBSA Nwat=0	|	-31.2034
STDEV0	|	3.4519
MM-GBSA Nwat=30	|	-52.3332
STDEV30	|	4.5541
MM-GBSA Nwat=60	|	-53.2731
STDEV60	|	4.675
ST.DEV < 10%	|	Y
RMSD LIG < 2	|	Y
DIST < 5	|	N
DIST < 3.5	|	N

# MOE 2019.01 (io_trps.svl 2018.10)

@<TRIPOS>MOLECULE
ligand078
59 62 1 0 0 
SMALL
NO_CHARGES


@<TRIPOS>ATOM
  1 C1      13.5990    -1.7310    22.2970 C.3   1 LIG   0.0000 
  2 H2      14.5570    -1.5380    22.0840 H     1 LIG   0.0000 
  3 H3      13.5200    -2.0110    23.2530 H     1 LIG   0.0000 
  4 H4      13.2690    -2.4670    21.7050 H     1 LIG   0.0000 
  5 O5      12.8220    -0.5630    22.0790 O.3   1 LIG   0.0000 
  6 C6      11.4910    -0.5870    22.3020 C.ar  1 LIG   0.0000 
  7 C7      10.7110     0.4800    21.8680 C.ar  1 LIG   0.0000 
  8 H8      11.1300     1.2560    21.3980 H     1 LIG   0.0000 
  9 C9       9.3390     0.4520    22.0990 C.ar  1 LIG   0.0000 
 10 C10      8.5260     1.6390    21.6080 C.3   1 LIG   0.0000 
 11 C11      7.8520     2.2720    22.8190 C.3   1 LIG   0.0000 
 12 H12      7.2520     1.6090    23.2670 H     1 LIG   0.0000 
 13 H13      8.5410     2.5910    23.4710 H     1 LIG   0.0000 
 14 N14      7.0700     3.4050    22.3090 N.am  1 LIG   0.0000 
 15 C15      7.4530     4.7500    22.3790 C.2   1 LIG   0.0000 
 16 O16      8.4940     5.0510    22.8950 O.2   1 LIG   0.0000 
 17 C17      6.5510     5.8280    21.8010 C.3   1 LIG   0.0000 
 18 H18      6.6480     5.8460    20.8060 H     1 LIG   0.0000 
 19 H19      5.6000     5.6310    22.0400 H     1 LIG   0.0000 
 20 CL20     7.0150     7.4110    22.4700 Cl    1 LIG   0.0000 
 21 C21      5.8230     2.9290    21.7020 C.3   1 LIG   0.0000 
 22 H22      5.3520     3.6880    21.2530 H     1 LIG   0.0000 
 23 H23      5.2300     2.5370    22.4050 H     1 LIG   0.0000 
 24 C24      6.1850     1.8640    20.6770 C.ar  1 LIG   0.0000 
 25 C25      5.2030     1.4840    19.7620 C.ar  1 LIG   0.0000 
 26 H26      4.3070     1.9280    19.7760 H     1 LIG   0.0000 
 27 C27      5.4740     0.4880    18.8280 C.ar  1 LIG   0.0000 
 28 H28      4.7650     0.2180    18.1760 H     1 LIG   0.0000 
 29 C29      6.7140    -0.1400    18.7890 C.ar  1 LIG   0.0000 
 30 H30      6.8980    -0.8580    18.1170 H     1 LIG   0.0000 
 31 C31      7.6950     0.2450    19.6960 C.ar  1 LIG   0.0000 
 32 H32      8.5930    -0.1950    19.6760 H     1 LIG   0.0000 
 33 C33      7.4310     1.2420    20.6320 C.ar  1 LIG   0.0000 
 34 C34      8.7590    -0.6340    22.7540 C.ar  1 LIG   0.0000 
 35 C35      7.3900    -0.6950    23.0000 C.ar  1 LIG   0.0000 
 36 H36      6.8070     0.0590    22.6970 H     1 LIG   0.0000 
 37 C37      6.8110    -1.7760    23.6550 C.ar  1 LIG   0.0000 
 38 H38      5.8260    -1.8040    23.8240 H     1 LIG   0.0000 
 39 C39      7.6350    -2.8150    24.0690 C.ar  1 LIG   0.0000 
 40 C40      7.0070    -3.9970    24.7850 C.3   1 LIG   0.0000 
 41 H41      6.1900    -3.6930    25.2760 H     1 LIG   0.0000 
 42 H42      7.6630    -4.3800    25.4350 H     1 LIG   0.0000 
 43 C43      6.6210    -5.0590    23.7690 C.3   1 LIG   0.0000 
 44 H44      7.4480    -5.4690    23.3850 H     1 LIG   0.0000 
 45 H45      6.0760    -5.7670    24.2180 H     1 LIG   0.0000 
 46 N46      5.8340    -4.4430    22.6910 N.am  1 LIG   0.0000 
 47 H47      5.0720    -3.8350    22.9140 H     1 LIG   0.0000 
 48 C48      6.1430    -4.7030    21.3820 C.2   1 LIG   0.0000 
 49 C49      7.3010    -5.6280    21.0440 C.3   1 LIG   0.0000 
 50 H50      7.7230    -5.9560    21.8890 H     1 LIG   0.0000 
 51 H51      6.9620    -6.4080    20.5170 H     1 LIG   0.0000 
 52 H52      7.9790    -5.1300    20.5040 H     1 LIG   0.0000 
 53 O53      5.5010    -4.2000    20.5020 O.2   1 LIG   0.0000 
 54 C54      9.0080    -2.7900    23.8410 C.ar  1 LIG   0.0000 
 55 H55      9.5890    -3.5460    24.1440 H     1 LIG   0.0000 
 56 C56      9.5560    -1.6940    23.1830 C.ar  1 LIG   0.0000 
 57 C57     10.9280    -1.6770    22.9590 C.ar  1 LIG   0.0000 
 58 H58     11.5020    -2.4370    23.2650 H     1 LIG   0.0000 
 59 H59      9.1330     2.3060    21.1760 H     1 LIG   0.0000 
@<TRIPOS>BOND
  1   1   2  1   
  2   1   3  1   
  3   1   4  1   
  4   1   5  1   
  5   5   6  1   
  6   6   7  ar  
  7   6  57  ar  
  8   7   8  1   
  9   7   9  ar  
 10   9  10  1   
 11   9  34  ar  
 12  10  11  1   
 13  10  33  1   
 14  10  59  1   
 15  11  12  1   
 16  11  13  1   
 17  11  14  1   
 18  14  15  am  
 19  14  21  1   
 20  15  16  2   
 21  15  17  1   
 22  17  18  1   
 23  17  19  1   
 24  17  20  1   
 25  21  22  1   
 26  21  23  1   
 27  21  24  1   
 28  24  25  ar  
 29  24  33  ar  
 30  25  26  1   
 31  25  27  ar  
 32  27  28  1   
 33  27  29  ar  
 34  29  30  1   
 35  29  31  ar  
 36  31  32  1   
 37  31  33  ar  
 38  34  35  ar  
 39  34  56  ar  
 40  35  36  1   
 41  35  37  ar  
 42  37  38  1   
 43  37  39  ar  
 44  39  40  1   
 45  39  54  ar  
 46  40  41  1   
 47  40  42  1   
 48  40  43  1   
 49  43  44  1   
 50  43  45  1   
 51  43  46  1   
 52  46  47  1   
 53  46  48  am  
 54  48  49  1   
 55  48  53  2   
 56  49  50  1   
 57  49  51  1   
 58  49  52  1   
 59  54  55  1   
 60  54  56  ar  
 61  56  57  ar  
 62  57  58  1   
@<TRIPOS>SUBSTRUCTURE
  1 LIG  34 GROUP 4 **** **** 0
@<TRIPOS>PROPERTY_DATA
index	|	ligand078
Name	|	DAR-DIA-cab-11
ChemPlp	|	-95.7309
MM-GBSA Nwat=0	|	-30.2544
STDEV0	|	3.0103
MM-GBSA Nwat=30	|	-50.6495
STDEV30	|	4.9886
MM-GBSA Nwat=60	|	-54.4671
STDEV60	|	5.4247
ST.DEV < 10%	|	Y
RMSD LIG < 2	|	Y
DIST < 5	|	N
DIST < 3.5	|	N

# MOE 2019.01 (io_trps.svl 2018.10)

@<TRIPOS>MOLECULE
ligand018
52 54 1 0 0 
SMALL
NO_CHARGES


@<TRIPOS>ATOM
  1 C1       6.7010    -6.3120    22.5910 C.2   1 LIG   0.0000 
  2 C4       7.1660    -5.1300    22.3130 C.2   1 LIG   0.0000 
  3 C6       6.3920    -4.2080    21.3850 C.2   1 LIG   0.0000 
  4 O7       5.3310    -4.5540    20.9430 O.2   1 LIG   0.0000 
  5 N8       6.9170    -2.9560    21.0450 N.am  1 LIG   0.0000 
  6 C9       6.1490    -2.0760    20.1510 C.3   1 LIG   0.0000 
  7 C12      6.3810    -0.6120    20.4900 C.3   1 LIG   0.0000 
  8 O15      7.7620    -0.3360    20.6890 O.3   1 LIG   0.0000 
  9 C16      8.2610    -1.0400    21.8190 C.3   1 LIG   0.0000 
 10 C17      9.7000    -0.6450    22.1070 C.ar  1 LIG   0.0000 
 11 C18     10.6220    -1.6440    22.4020 C.ar  1 LIG   0.0000 
 12 C20     11.9470    -1.3120    22.6700 C.ar  1 LIG   0.0000 
 13 C22     12.3390     0.0220    22.6400 C.ar  1 LIG   0.0000 
 14 F23     13.6050     0.3380    22.8950 F     1 LIG   0.0000 
 15 C24     11.4250     1.0280    22.3460 C.ar  1 LIG   0.0000 
 16 C26     10.1030     0.6870    22.0800 C.ar  1 LIG   0.0000 
 17 C27      9.1190     1.8020    21.7610 C.3   1 LIG   0.0000 
 18 C30      9.2060     2.8760    22.8330 C.3   1 LIG   0.0000 
 19 C31      7.8930     3.6400    22.8920 C.3   1 LIG   0.0000 
 20 N35     10.2990     3.8050    22.5080 N.pl3 1 LIG   0.0000 
 21 C37     10.8040     4.6610    23.4920 C.ar  1 LIG   0.0000 
 22 C38     10.1230     4.7450    24.7030 C.ar  1 LIG   0.0000 
 23 C40     10.6130     5.5920    25.6920 C.ar  1 LIG   0.0000 
 24 C42     11.7650     6.3370    25.4650 C.ar  1 LIG   0.0000 
 25 C43     12.2920     7.2590    26.5520 C.1   1 LIG   0.0000 
 26 N44     12.6870     7.9510    27.3680 N.1   1 LIG   0.0000 
 27 C45     12.4000     6.2080    24.2340 C.ar  1 LIG   0.0000 
 28 N47     11.9140     5.3880    23.2910 N.ar  1 LIG   0.0000 
 29 C48      8.2180    -2.5430    21.5930 C.3   1 LIG   0.0000 
 30 H18     10.3330    -2.6020    22.4230 H     1 LIG   0.0000 
 31 H20     12.6120    -2.0280    22.8820 H     1 LIG   0.0000 
 32 H24     11.7140     1.9850    22.3270 H     1 LIG   0.0000 
 33 H38      9.2950     4.2060    24.8590 H     1 LIG   0.0000 
 34 H40     10.1360     5.6640    26.5680 H     1 LIG   0.0000 
 35 H45     13.2300     6.7350    24.0490 H     1 LIG   0.0000 
 36 H91      5.1750    -2.2830    20.2470 H     1 LIG   0.0000 
 37 H92      6.4330    -2.2420    19.2060 H     1 LIG   0.0000 
 38 H121     6.0420    -0.0460    19.7380 H     1 LIG   0.0000 
 39 H122     5.8820    -0.3880    21.3270 H     1 LIG   0.0000 
 40 H16      7.6980    -0.8160    22.6140 H     1 LIG   0.0000 
 41 H271     8.1910     1.4300    21.7360 H     1 LIG   0.0000 
 42 H272     9.3430     2.1990    20.8710 H     1 LIG   0.0000 
 43 H30      9.3840     2.4490    23.7190 H     1 LIG   0.0000 
 44 H311     7.1500     3.0080    23.1130 H     1 LIG   0.0000 
 45 H312     7.9500     4.3470    23.5970 H     1 LIG   0.0000 
 46 H313     7.7150     4.0670    22.0060 H     1 LIG   0.0000 
 47 H481     8.9400    -2.7980    20.9490 H     1 LIG   0.0000 
 48 H482     8.3690    -3.0090    22.4640 H     1 LIG   0.0000 
 49 H11      7.2100    -6.9190    23.2020 H     1 LIG   0.0000 
 50 H12      5.8340    -6.6140    22.1940 H     1 LIG   0.0000 
 51 H4       8.0330    -4.8280    22.7100 H     1 LIG   0.0000 
 52 H35     10.6800     3.8240    21.5840 H     1 LIG   0.0000 
@<TRIPOS>BOND
  1   1   2  2   
  2   1  49  1   
  3   1  50  1   
  4   2   3  1   
  5   2  51  1   
  6   3   4  2   
  7   3   5  am  
  8   5   6  1   
  9   5  29  1   
 10   6   7  1   
 11   6  36  1   
 12   6  37  1   
 13   7   8  1   
 14   7  38  1   
 15   7  39  1   
 16   8   9  1   
 17   9  10  1   
 18   9  29  1   
 19   9  40  1   
 20  10  11  ar  
 21  10  16  ar  
 22  11  12  ar  
 23  11  30  1   
 24  12  13  ar  
 25  12  31  1   
 26  13  14  1   
 27  13  15  ar  
 28  15  16  ar  
 29  15  32  1   
 30  16  17  1   
 31  17  18  1   
 32  17  41  1   
 33  17  42  1   
 34  18  19  1   
 35  18  20  1   
 36  18  43  1   
 37  19  44  1   
 38  19  45  1   
 39  19  46  1   
 40  20  21  1   
 41  20  52  1   
 42  21  22  ar  
 43  21  28  ar  
 44  22  23  ar  
 45  22  33  1   
 46  23  24  ar  
 47  23  34  1   
 48  24  25  1   
 49  24  27  ar  
 50  25  26  3   
 51  27  28  ar  
 52  27  35  1   
 53  29  47  1   
 54  29  48  1   
@<TRIPOS>SUBSTRUCTURE
  1 LIG  16 GROUP 4 **** **** 0
@<TRIPOS>PROPERTY_DATA
index	|	ligand018
Name	|	BEN-VAN-77c-10
ChemPlp	|	-93.8436
MM-GBSA Nwat=0	|	-30.3104
STDEV0	|	2.9488
MM-GBSA Nwat=30	|	-49.7637
STDEV30	|	4.742
MM-GBSA Nwat=60	|	-56.2444
STDEV60	|	4.1218
ST.DEV < 10%	|	Y
RMSD LIG < 2	|	Y
DIST < 5	|	N
DIST < 3.5	|	N

# MOE 2019.01 (io_trps.svl 2018.10)

@<TRIPOS>MOLECULE
ligand566
52 54 1 0 0 
SMALL
USER_CHARGES


@<TRIPOS>ATOM
  1 O1       5.8000    -3.3890    20.0520 O.2   1 LIG   0.0000 
  2 C2       6.0110    -2.3500    20.6130 C.2   1 LIG   0.0000 
  3 N3       6.3200    -2.3430    21.9480 N.am  1 LIG   0.0000 
  4 C5       6.3930    -3.6090    22.6920 C.3   1 LIG   0.0000 
  5 C6       5.0070    -3.8890    23.2550 C.3   1 LIG   0.0000 
  6 C9       4.9740    -5.1470    24.1110 C.3   1 LIG   0.0000 
  7 N12      6.1090    -5.2080    25.0470 N.am  1 LIG   0.0000 
  8 C13      5.9180    -5.8300    26.2850 C.2   1 LIG   0.0000 
  9 O14      6.8230    -5.8920    27.0710 O.2   1 LIG   0.0000 
 10 C15      4.5640    -6.4260    26.6350 C.3   1 LIG   0.0000 
 11 CL18     3.9920    -7.4330    25.2830 Cl    1 LIG   0.0000 
 12 C19      7.4340    -4.6430    24.7460 C.3   1 LIG   0.0000 
 13 C22      7.3360    -3.4030    23.8690 C.3   1 LIG   0.0000 
 14 N23      8.6890    -3.0640    23.4010 N.4   1 LIG   1.0000 
 15 C25      9.4990    -2.6030    24.5380 C.3   1 LIG   0.0000 
 16 C28     10.5930    -1.6740    24.0370 C.ar  1 LIG   0.0000 
 17 C29     11.3440    -2.0310    22.9220 C.ar  1 LIG   0.0000 
 18 C31     12.3440    -1.1790    22.4680 C.ar  1 LIG   0.0000 
 19 C33     12.5870     0.0220    23.1260 C.ar  1 LIG   0.0000 
 20 C35     11.8310     0.3690    24.2390 C.ar  1 LIG   0.0000 
 21 C37     10.8280    -0.4760    24.7040 C.ar  1 LIG   0.0000 
 22 C39      5.9390    -1.1010    19.8790 C.ar  1 LIG   0.0000 
 23 C40      5.9380     0.1060    20.5710 C.ar  1 LIG   0.0000 
 24 C42      5.8680     1.3010    19.8630 C.ar  1 LIG   0.0000 
 25 C44      5.8000     1.2840    18.4740 C.ar  1 LIG   0.0000 
 26 C46      5.8020     0.0730    17.7940 C.ar  1 LIG   0.0000 
 27 C48      5.8710    -1.1300    18.4900 C.ar  1 LIG   0.0000 
 28 H29     11.1650    -2.8950    22.4510 H     1 LIG   0.0000 
 29 H31     12.8890    -1.4290    21.6670 H     1 LIG   0.0000 
 30 H33     13.3060     0.6360    22.7990 H     1 LIG   0.0000 
 31 H35     12.0090     1.2330    24.7100 H     1 LIG   0.0000 
 32 H37     10.2840    -0.2250    25.5050 H     1 LIG   0.0000 
 33 H40      5.9880     0.1140    21.5700 H     1 LIG   0.0000 
 34 H42      5.8660     2.1730    20.3530 H     1 LIG   0.0000 
 35 H44      5.7500     2.1440    17.9650 H     1 LIG   0.0000 
 36 H46      5.7520     0.0650    16.7950 H     1 LIG   0.0000 
 37 H48      5.8720    -2.0010    18.0000 H     1 LIG   0.0000 
 38 H5       6.7040    -4.3570    22.1050 H     1 LIG   0.0000 
 39 H61      4.3680    -4.0010    22.4940 H     1 LIG   0.0000 
 40 H62      4.7240    -3.1110    23.8160 H     1 LIG   0.0000 
 41 H91      4.1230    -5.1590    24.6340 H     1 LIG   0.0000 
 42 H92      5.0080    -5.9470    23.5110 H     1 LIG   0.0000 
 43 H151     4.6510    -6.9900    27.4570 H     1 LIG   0.0000 
 44 H152     3.9090    -5.6900    26.8040 H     1 LIG   0.0000 
 45 H191     7.9790    -5.3330    24.2700 H     1 LIG   0.0000 
 46 H192     7.8830    -4.3970    25.6040 H     1 LIG   0.0000 
 47 H22      6.9920    -2.6460    24.4240 H     1 LIG   0.0000 
 48 H231     8.6320    -2.3380    22.7160 H     1 LIG   0.0000 
 49 H232     9.1140    -3.8730    22.9950 H     1 LIG   0.0000 
 50 H251     9.9140    -3.3920    24.9930 H     1 LIG   0.0000 
 51 H252     8.9160    -2.1130    25.1860 H     1 LIG   0.0000 
 52 H3       6.4950    -1.4770    22.4160 H     1 LIG   0.0000 
@<TRIPOS>BOND
  1   1   2  2   
  2   2   3  am  
  3   2  22  1   
  4   3   4  1   
  5   3  52  1   
  6   4   5  1   
  7   4  13  1   
  8   4  38  1   
  9   5   6  1   
 10   5  39  1   
 11   5  40  1   
 12   6   7  1   
 13   6  41  1   
 14   6  42  1   
 15   7   8  am  
 16   7  12  1   
 17   8   9  2   
 18   8  10  1   
 19  10  11  1   
 20  10  43  1   
 21  10  44  1   
 22  12  13  1   
 23  12  45  1   
 24  12  46  1   
 25  13  14  1   
 26  13  47  1   
 27  14  15  1   
 28  14  48  1   
 29  14  49  1   
 30  15  16  1   
 31  15  50  1   
 32  15  51  1   
 33  16  17  ar  
 34  16  21  ar  
 35  17  18  ar  
 36  17  28  1   
 37  18  19  ar  
 38  18  29  1   
 39  19  20  ar  
 40  19  30  1   
 41  20  21  ar  
 42  20  31  1   
 43  21  32  1   
 44  22  23  ar  
 45  22  27  ar  
 46  23  24  ar  
 47  23  33  1   
 48  24  25  ar  
 49  24  34  1   
 50  25  26  ar  
 51  25  35  1   
 52  26  27  ar  
 53  26  36  1   
 54  27  37  1   
@<TRIPOS>SUBSTRUCTURE
  1 LIG  13 GROUP 4 **** **** 0
@<TRIPOS>PROPERTY_DATA
index	|	ligand566
Name	|	SIM-SYN-7db-1
ChemPlp	|	-95.933
MM-GBSA Nwat=0	|	-21.1909
STDEV0	|	2.5324
MM-GBSA Nwat=30	|	-49.476
STDEV30	|	4.6712
MM-GBSA Nwat=60	|	-58.6116
STDEV60	|	4.5607
ST.DEV < 10%	|	Y
RMSD LIG < 2	|	Y
DIST < 5	|	N
DIST < 3.5	|	N

# MOE 2019.01 (io_trps.svl 2018.10)

@<TRIPOS>MOLECULE
ligand046
56 61 1 0 0 
SMALL
USER_CHARGES


@<TRIPOS>ATOM
  1 O1       5.5020    -4.2070    20.2580 O.2   1 LIG   0.0000 
  2 C2       6.1120    -4.8140    21.0940 C.2   1 LIG   0.0000 
  3 C3       5.6890    -6.2250    21.4690 C.3   1 LIG   0.0000 
  4 H4       4.8110    -6.4350    21.0390 H     1 LIG   0.0000 
  5 H5       6.3800    -6.8760    21.1520 H     1 LIG   0.0000 
  6 CL6      5.5280    -6.3460    23.2370 Cl    1 LIG   0.0000 
  7 N7       7.2140    -4.2230    21.7240 N.am  1 LIG   0.0000 
  8 C8       7.9010    -5.0320    22.7480 C.3   1 LIG   0.0000 
  9 H9       8.6900    -5.4820    22.3300 H     1 LIG   0.0000 
 10 H10      7.2680    -5.7240    23.0940 H     1 LIG   0.0000 
 11 C11      8.3810    -4.1780    23.9100 C.3   1 LIG   0.0000 
 12 H12      7.5940    -3.9230    24.4720 H     1 LIG   0.0000 
 13 H13      9.0250    -4.7090    24.4590 H     1 LIG   0.0000 
 14 N14      9.0480    -2.9530    23.4410 N.3   1 LIG   0.0000 
 15 C15      9.4280    -2.1450    24.6080 C.3   1 LIG   0.0000 
 16 C16     10.2390    -0.8740    24.3950 C.2   1 LIG   0.0000 
 17 C17      9.9210     0.3470    24.9080 C.2   1 LIG   0.0000 
 18 H18      9.1330     0.5750    25.4810 H     1 LIG   0.0000 
 19 C19     10.9330     1.2230    24.4640 C.3   1 LIG   0.0000 
 20 C20     11.0190     2.7080    24.7800 C.1   1 LIG   0.0000 
 21 C21     11.0860     3.8700    25.0270 C.1   1 LIG   0.0000 
 22 C22     11.1730     5.3540    25.3430 C.ar  1 LIG   0.0000 
 23 C23     10.1100     5.9940    25.9730 C.ar  1 LIG   0.0000 
 24 H24      9.2900     5.4760    26.2180 H     1 LIG   0.0000 
 25 C25     10.1840     7.3520    26.2650 C.ar  1 LIG   0.0000 
 26 H26      9.4210     7.8150    26.7180 H     1 LIG   0.0000 
 27 C27     11.3300     8.0600    25.9180 C.ar  1 LIG   0.0000 
 28 F28     11.4040     9.3590    26.1940 F     1 LIG   0.0000 
 29 C29     12.4000     7.4320    25.2880 C.ar  1 LIG   0.0000 
 30 H30     13.2190     7.9500    25.0440 H     1 LIG   0.0000 
 31 C31     12.3140     6.0730    25.0020 C.ar  1 LIG   0.0000 
 32 O32     13.3450     5.4520    24.3910 O.3   1 LIG   0.0000 
 33 H33     14.2460     5.8850    24.3660 H     1 LIG   0.0000 
 34 C34     11.8140     0.5140    23.7050 C.ar  1 LIG   0.0000 
 35 C35     12.9960     0.9150    23.0310 C.ar  1 LIG   0.0000 
 36 H36     13.3120     1.8630    23.0590 H     1 LIG   0.0000 
 37 C37     13.6900    -0.0440    22.3410 C.ar  1 LIG   0.0000 
 38 H38     14.5280     0.2100    21.8570 H     1 LIG   0.0000 
 39 C39     13.2420    -1.3900    22.2990 C.ar  1 LIG   0.0000 
 40 H40     13.7530    -2.0830    21.7920 H     1 LIG   0.0000 
 41 C41     12.0930    -1.7200    22.9690 C.ar  1 LIG   0.0000 
 42 H42     11.7650    -2.6650    22.9490 H     1 LIG   0.0000 
 43 N43     11.3870    -0.7740    23.6670 N.ar  1 LIG   1.0000 
 44 C44      9.7020    -2.8930    25.8830 C.3   1 LIG   0.0000 
 45 H45     10.4060    -2.5660    26.5130 H     1 LIG   0.0000 
 46 H46      9.6860    -3.8930    25.8890 H     1 LIG   0.0000 
 47 C47      8.4220    -2.1240    25.7220 C.3   1 LIG   0.0000 
 48 H48      7.5540    -2.6110    25.6220 H     1 LIG   0.0000 
 49 H49      8.2740    -1.2850    26.2460 H     1 LIG   0.0000 
 50 C50      8.1920    -2.1870    22.5210 C.3   1 LIG   0.0000 
 51 C51      8.9280    -2.2100    21.2130 C.3   1 LIG   0.0000 
 52 H52      9.0440    -1.3660    20.6900 H     1 LIG   0.0000 
 53 H53      9.7420    -2.7810    21.1080 H     1 LIG   0.0000 
 54 C54      7.5740    -2.8490    21.3140 C.3   1 LIG   0.0000 
 55 H55      7.8090    -1.3190    22.8380 H     1 LIG   0.0000 
 56 H56      6.8340    -2.3310    20.8860 H     1 LIG   0.0000 
@<TRIPOS>BOND
  1   1   2  2   
  2   2   3  1   
  3   2   7  am  
  4   3   4  1   
  5   3   5  1   
  6   3   6  1   
  7   7   8  1   
  8   7  54  1   
  9   8   9  1   
 10   8  10  1   
 11   8  11  1   
 12  11  12  1   
 13  11  13  1   
 14  11  14  1   
 15  14  15  1   
 16  14  50  1   
 17  15  16  1   
 18  15  44  1   
 19  15  47  1   
 20  16  17  2   
 21  16  43  1   
 22  17  18  1   
 23  17  19  1   
 24  19  20  1   
 25  19  34  1   
 26  20  21  3   
 27  21  22  1   
 28  22  23  ar  
 29  22  31  ar  
 30  23  24  1   
 31  23  25  ar  
 32  25  26  1   
 33  25  27  ar  
 34  27  28  1   
 35  27  29  ar  
 36  29  30  1   
 37  29  31  ar  
 38  31  32  1   
 39  32  33  1   
 40  34  35  ar  
 41  34  43  ar  
 42  35  36  1   
 43  35  37  ar  
 44  37  38  1   
 45  37  39  ar  
 46  39  40  1   
 47  39  41  ar  
 48  41  42  1   
 49  41  43  ar  
 50  44  45  1   
 51  44  46  1   
 52  44  47  1   
 53  47  48  1   
 54  47  49  1   
 55  50  51  1   
 56  50  54  1   
 57  50  55  1   
 58  51  52  1   
 59  51  53  1   
 60  51  54  1   
 61  54  56  1   
@<TRIPOS>SUBSTRUCTURE
  1 LIG  17 GROUP 4 **** **** 0
@<TRIPOS>PROPERTY_DATA
index	|	ligand046
Name	|	BOG-INS-299-1
ChemPlp	|	-98.0084
MM-GBSA Nwat=0	|	-36.7511
STDEV0	|	3.0799
MM-GBSA Nwat=30	|	-49.3787
STDEV30	|	4.6822
MM-GBSA Nwat=60	|	-54.5985
STDEV60	|	4.6034
ST.DEV < 10%	|	Y
RMSD LIG < 2	|	Y
DIST < 5	|	N
DIST < 3.5	|	N

# MOE 2019.01 (io_trps.svl 2018.10)

@<TRIPOS>MOLECULE
ligand116
47 50 1 0 0 
SMALL
NO_CHARGES


@<TRIPOS>ATOM
  1 O1       5.0420    -4.0240    21.6610 O.2   1 LIG   0.0000 
  2 C2       4.8640    -4.2690    22.8220 C.2   1 LIG   0.0000 
  3 C3       3.5830    -4.9560    23.2660 C.3   1 LIG   0.0000 
  4 CL6      3.9830    -6.4830    24.0900 Cl    1 LIG   0.0000 
  5 N7       5.8370    -3.9230    23.7690 N.am  1 LIG   0.0000 
  6 C8       5.5650    -4.2430    25.1770 C.3   1 LIG   0.0000 
  7 C11      6.8670    -4.3350    25.9580 C.ar  1 LIG   0.0000 
  8 C12      7.0300    -5.2600    26.9850 C.ar  1 LIG   0.0000 
  9 C14      8.2230    -5.3360    27.6960 C.ar  1 LIG   0.0000 
 10 C16      9.2780    -4.4840    27.3920 C.ar  1 LIG   0.0000 
 11 C18      9.1010    -3.5680    26.3610 C.ar  1 LIG   0.0000 
 12 C20      7.9140    -3.4810    25.6370 C.ar  1 LIG   0.0000 
 13 C21      7.7250    -2.4810    24.5060 C.3   1 LIG   0.0000 
 14 C22      9.0240    -1.8940    23.9790 C.ar  1 LIG   0.0000 
 15 C23      9.4930    -0.6880    24.4900 C.ar  1 LIG   0.0000 
 16 C25     10.6820    -0.1540    24.0040 C.ar  1 LIG   0.0000 
 17 C27     11.3930    -0.8260    23.0150 C.ar  1 LIG   0.0000 
 18 C29     10.9150    -2.0300    22.5120 C.ar  1 LIG   0.0000 
 19 C31      9.7270    -2.5740    22.9890 C.ar  1 LIG   0.0000 
 20 C33      7.0880    -3.2560    23.3660 C.3   1 LIG   0.0000 
 21 C34      6.7740    -2.3360    22.1970 C.1   1 LIG   0.0000 
 22 C35      6.5280    -1.6150    21.2830 C.1   1 LIG   0.0000 
 23 C36      6.2140    -0.6950    20.1140 C.ar  1 LIG   0.0000 
 24 C37      5.6710     0.5640    20.3450 C.ar  1 LIG   0.0000 
 25 C39      5.3850     1.4040    19.2730 C.ar  1 LIG   0.0000 
 26 C41      5.6530     0.9560    17.9830 C.ar  1 LIG   0.0000 
 27 N43      6.1750    -0.2620    17.7790 N.ar  1 LIG   0.0000 
 28 C44      6.4570    -1.0830    18.8010 C.ar  1 LIG   0.0000 
 29 H12      6.2780    -5.8780    27.2160 H     1 LIG   0.0000 
 30 H14      8.3220    -6.0080    28.4290 H     1 LIG   0.0000 
 31 H16     10.1380    -4.5280    27.8990 H     1 LIG   0.0000 
 32 H18      9.8530    -2.9500    26.1310 H     1 LIG   0.0000 
 33 H23      8.9800    -0.2090    25.2020 H     1 LIG   0.0000 
 34 H25     11.0260     0.7120    24.3660 H     1 LIG   0.0000 
 35 H27     12.2480    -0.4420    22.6660 H     1 LIG   0.0000 
 36 H29     11.4300    -2.5090    21.8010 H     1 LIG   0.0000 
 37 H31      9.3840    -3.4400    22.6270 H     1 LIG   0.0000 
 38 H37      5.4870     0.8660    21.2800 H     1 LIG   0.0000 
 39 H39      4.9950     2.3110    19.4270 H     1 LIG   0.0000 
 40 H41      5.4540     1.5480    17.2020 H     1 LIG   0.0000 
 41 H44      6.8470    -1.9860    18.6160 H     1 LIG   0.0000 
 42 H31      3.0850    -4.3590    23.8950 H     1 LIG   0.0000 
 43 H32      3.0130    -5.1480    22.4670 H     1 LIG   0.0000 
 44 H81      5.0860    -5.1200    25.2300 H     1 LIG   0.0000 
 45 H82      4.9920    -3.5260    25.5740 H     1 LIG   0.0000 
 46 H21      7.1140    -1.7460    24.8010 H     1 LIG   0.0000 
 47 H33      7.7340    -3.9540    23.0560 H     1 LIG   0.0000 
@<TRIPOS>BOND
  1   1   2  2   
  2   2   3  1   
  3   2   5  am  
  4   3   4  1   
  5   3  42  1   
  6   3  43  1   
  7   5   6  1   
  8   5  20  1   
  9   6   7  1   
 10   6  44  1   
 11   6  45  1   
 12   7   8  ar  
 13   7  12  ar  
 14   8   9  ar  
 15   8  29  1   
 16   9  10  ar  
 17   9  30  1   
 18  10  11  ar  
 19  10  31  1   
 20  11  12  ar  
 21  11  32  1   
 22  12  13  1   
 23  13  14  1   
 24  13  20  1   
 25  13  46  1   
 26  14  15  ar  
 27  14  19  ar  
 28  15  16  ar  
 29  15  33  1   
 30  16  17  ar  
 31  16  34  1   
 32  17  18  ar  
 33  17  35  1   
 34  18  19  ar  
 35  18  36  1   
 36  19  37  1   
 37  20  21  1   
 38  20  47  1   
 39  21  22  3   
 40  22  23  1   
 41  23  24  ar  
 42  23  28  ar  
 43  24  25  ar  
 44  24  38  1   
 45  25  26  ar  
 46  25  39  1   
 47  26  27  ar  
 48  26  40  1   
 49  27  28  ar  
 50  28  41  1   
@<TRIPOS>SUBSTRUCTURE
  1 LIG  20 GROUP 4 **** **** 0
@<TRIPOS>PROPERTY_DATA
index	|	ligand116
Name	|	DAV-CRI-1c7-3
ChemPlp	|	-93.2717
MM-GBSA Nwat=0	|	-38.9217
STDEV0	|	3.2675
MM-GBSA Nwat=30	|	-47.5896
STDEV30	|	3.5123
MM-GBSA Nwat=60	|	-47.3712
STDEV60	|	3.481
ST.DEV < 10%	|	Y
RMSD LIG < 2	|	Y
DIST < 5	|	N
DIST < 3.5	|	N

# MOE 2019.01 (io_trps.svl 2018.10)

@<TRIPOS>MOLECULE
ligand011
44 46 1 0 0 
SMALL
NO_CHARGES


@<TRIPOS>ATOM
  1 C1      13.8920     6.3320    21.9980 C.3   1 LIG   0.0000 
  2 H2      14.6450     6.5770    21.3880 H     1 LIG   0.0000 
  3 H3      13.0240     6.5980    21.5790 H     1 LIG   0.0000 
  4 H4      14.0010     6.8080    22.8700 H     1 LIG   0.0000 
  5 O5      13.9000     4.9290    22.2200 O.3   1 LIG   0.0000 
  6 C6      12.9670     4.3670    23.0180 C.ar  1 LIG   0.0000 
  7 C7      12.2230     5.1710    23.8730 C.ar  1 LIG   0.0000 
  8 H8      12.3800     6.1580    23.8960 H     1 LIG   0.0000 
  9 C9      11.2590     4.5990    24.6950 C.ar  1 LIG   0.0000 
 10 H10     10.7210     5.1750    25.3110 H     1 LIG   0.0000 
 11 C11     11.0430     3.2260    24.6620 C.ar  1 LIG   0.0000 
 12 H12     10.3520     2.8110    25.2540 H     1 LIG   0.0000 
 13 C13     11.7930     2.4320    23.8010 C.ar  1 LIG   0.0000 
 14 N14     11.5800     1.0500    23.7590 N.pl3 1 LIG   0.0000 
 15 C15     10.6660     0.3650    24.4960 C.2   1 LIG   0.0000 
 16 H16     10.0230     0.7340    25.1670 H     1 LIG   0.0000 
 17 C17     10.8190    -0.9310    24.1210 C.2   1 LIG   0.0000 
 18 C18     10.0310    -2.1160    24.6550 C.3   1 LIG   0.0000 
 19 H19     10.6230    -2.6760    25.2340 H     1 LIG   0.0000 
 20 H20      9.2550    -1.7850    25.1920 H     1 LIG   0.0000 
 21 N21      9.5400    -2.9240    23.5320 N.3   1 LIG   0.0000 
 22 C22      8.7000    -3.9880    24.1050 C.3   1 LIG   0.0000 
 23 H23      7.9590    -3.5690    24.6290 H     1 LIG   0.0000 
 24 H24      9.2610    -4.5500    24.7130 H     1 LIG   0.0000 
 25 C25      8.1010    -4.8740    23.0240 C.3   1 LIG   0.0000 
 26 H26      8.8150    -5.4760    22.6640 H     1 LIG   0.0000 
 27 H27      7.3700    -5.4270    23.4240 H     1 LIG   0.0000 
 28 N28      7.5470    -4.0760    21.9180 N.am  1 LIG   0.0000 
 29 C29      6.4320    -4.5590    21.2230 C.2   1 LIG   0.0000 
 30 O30      5.9670    -3.9220    20.3180 O.2   1 LIG   0.0000 
 31 C31      5.8120    -5.8910    21.6120 C.3   1 LIG   0.0000 
 32 H32      5.3680    -6.2980    20.8140 H     1 LIG   0.0000 
 33 H33      6.5260    -6.5060    21.9480 H     1 LIG   0.0000 
 34 CL34     4.6040    -5.6300    22.8930 Cl    1 LIG   0.0000 
 35 C35      8.1120    -2.7790    21.5140 C.3   1 LIG   0.0000 
 36 H36      7.3890    -2.2200    21.1080 H     1 LIG   0.0000 
 37 H37      8.8330    -2.9340    20.8380 H     1 LIG   0.0000 
 38 C38      8.7000    -2.0400    22.7070 C.3   1 LIG   0.0000 
 39 H39      9.2590    -1.2790    22.3750 H     1 LIG   0.0000 
 40 H40      7.9540    -1.6840    23.2690 H     1 LIG   0.0000 
 41 N41     11.8070    -0.9770    23.1880 N.2   1 LIG   0.0000 
 42 N42     12.2260     0.2000    23.0000 N.2   1 LIG   0.0000 
 43 C43     12.7600     2.9920    22.9720 C.ar  1 LIG   0.0000 
 44 H44     13.2960     2.4170    22.3550 H     1 LIG   0.0000 
@<TRIPOS>BOND
  1   1   2  1   
  2   1   3  1   
  3   1   4  1   
  4   1   5  1   
  5   5   6  1   
  6   6   7  ar  
  7   6  43  ar  
  8   7   8  1   
  9   7   9  ar  
 10   9  10  1   
 11   9  11  ar  
 12  11  12  1   
 13  11  13  ar  
 14  13  14  1   
 15  13  43  ar  
 16  14  15  1   
 17  14  42  1   
 18  15  16  1   
 19  15  17  2   
 20  17  18  1   
 21  17  41  1   
 22  18  19  1   
 23  18  20  1   
 24  18  21  1   
 25  21  22  1   
 26  21  38  1   
 27  22  23  1   
 28  22  24  1   
 29  22  25  1   
 30  25  26  1   
 31  25  27  1   
 32  25  28  1   
 33  28  29  am  
 34  28  35  1   
 35  29  30  2   
 36  29  31  1   
 37  31  32  1   
 38  31  33  1   
 39  31  34  1   
 40  35  36  1   
 41  35  37  1   
 42  35  38  1   
 43  38  39  1   
 44  38  40  1   
 45  41  42  2   
 46  43  44  1   
@<TRIPOS>SUBSTRUCTURE
  1 LIG  17 GROUP 4 **** **** 0
@<TRIPOS>PROPERTY_DATA
index	|	ligand011
Name	|	ANT-STE-dbb-2
ChemPlp	|	-91.6909
MM-GBSA Nwat=0	|	-32.1535
STDEV0	|	2.8893
MM-GBSA Nwat=30	|	-46.4552
STDEV30	|	4.5849
MM-GBSA Nwat=60	|	-48.3913
STDEV60	|	4.4085
ST.DEV < 10%	|	Y
RMSD LIG < 2	|	Y
DIST < 5	|	N
DIST < 3.5	|	N

# MOE 2019.01 (io_trps.svl 2018.10)

@<TRIPOS>MOLECULE
ligand010
45 47 1 0 0 
SMALL
USER_CHARGES


@<TRIPOS>ATOM
  1 C1       6.3470    -5.8180    21.2650 C.3   1 LIG   0.0000 
  2 O5       5.8000    -4.6040    20.7720 O.3   1 LIG   0.0000 
  3 C6       6.5010    -3.4550    20.8810 C.ar  1 LIG   0.0000 
  4 C7       7.7850    -3.4720    21.4150 C.ar  1 LIG   0.0000 
  5 C9       8.5070    -2.2880    21.5270 C.ar  1 LIG   0.0000 
  6 C11      7.9280    -1.0970    21.1010 C.ar  1 LIG   0.0000 
  7 N12      8.6550     0.0940    21.2150 N.pl3 1 LIG   0.0000 
  8 C13      9.9210     0.2090    21.6960 C.2   1 LIG   0.0000 
  9 C15     10.2050     1.5340    21.6120 C.2   1 LIG   0.0000 
 10 C16     11.5060     2.1980    22.0300 C.3   1 LIG   0.0000 
 11 N19     11.2190     3.5160    22.6150 N.4   1 LIG   1.0000 
 12 C20     10.2730     3.2980    23.7220 C.3   1 LIG   0.0000 
 13 C23      9.9340     4.5940    24.4420 C.3   1 LIG   0.0000 
 14 N26     11.1390     5.3930    24.7130 N.am  1 LIG   0.0000 
 15 C27     11.1720     6.1790    25.8700 C.2   1 LIG   0.0000 
 16 O28     10.2300     6.1920    26.6140 O.2   1 LIG   0.0000 
 17 C29     12.4000     7.0180    26.1850 C.3   1 LIG   0.0000 
 18 CL32    12.5160     7.2640    27.9440 Cl    1 LIG   0.0000 
 19 C33     12.3120     5.3870    23.8240 C.3   1 LIG   0.0000 
 20 C36     12.4910     4.0400    23.1400 C.3   1 LIG   0.0000 
 21 N39      9.1130     2.1590    21.0950 N.2   1 LIG   0.0000 
 22 N40      8.2280     1.2840    20.8730 N.2   1 LIG   0.0000 
 23 C41      6.6440    -1.0800    20.5670 C.ar  1 LIG   0.0000 
 24 C43      5.9220    -2.2640    20.4550 C.ar  1 LIG   0.0000 
 25 H7       8.1900    -4.3350    21.7170 H     1 LIG   0.0000 
 26 H9       9.4310    -2.2940    21.9100 H     1 LIG   0.0000 
 27 H41      6.2400    -0.2170    20.2640 H     1 LIG   0.0000 
 28 H43      4.9980    -2.2590    20.0720 H     1 LIG   0.0000 
 29 H13     10.5130    -0.5220    22.0360 H     1 LIG   0.0000 
 30 H11      5.7000    -6.5640    21.1030 H     1 LIG   0.0000 
 31 H12      7.2060    -6.0130    20.7920 H     1 LIG   0.0000 
 32 H13      6.5180    -5.7320    22.2460 H     1 LIG   0.0000 
 33 H161    11.9700     1.6270    22.7070 H     1 LIG   0.0000 
 34 H162    12.0950     2.3100    21.2290 H     1 LIG   0.0000 
 35 H19     10.8320     4.1340    21.9310 H     1 LIG   0.0000 
 36 H201    10.6830     2.6630    24.3770 H     1 LIG   0.0000 
 37 H202     9.4320     2.9020    23.3560 H     1 LIG   0.0000 
 38 H231     9.3110     5.1300    23.8700 H     1 LIG   0.0000 
 39 H232     9.4860     4.3770    25.3090 H     1 LIG   0.0000 
 40 H291    13.2190     6.5450    25.8600 H     1 LIG   0.0000 
 41 H292    12.3240     7.9050    25.7280 H     1 LIG   0.0000 
 42 H331    13.1290     5.5870    24.3640 H     1 LIG   0.0000 
 43 H332    12.1930     6.0920    23.1260 H     1 LIG   0.0000 
 44 H361    13.1340     4.1450    22.3810 H     1 LIG   0.0000 
 45 H362    12.8600     3.3870    23.8010 H     1 LIG   0.0000 
@<TRIPOS>BOND
  1   1   2  1   
  2   1  30  1   
  3   1  31  1   
  4   1  32  1   
  5   2   3  1   
  6   3   4  ar  
  7   3  24  ar  
  8   4   5  ar  
  9   4  25  1   
 10   5   6  ar  
 11   5  26  1   
 12   6   7  1   
 13   6  23  ar  
 14   7   8  1   
 15   7  22  1   
 16   8   9  2   
 17   8  29  1   
 18   9  10  1   
 19   9  21  1   
 20  10  11  1   
 21  10  33  1   
 22  10  34  1   
 23  11  12  1   
 24  11  20  1   
 25  11  35  1   
 26  12  13  1   
 27  12  36  1   
 28  12  37  1   
 29  13  14  1   
 30  13  38  1   
 31  13  39  1   
 32  14  15  am  
 33  14  19  1   
 34  15  16  2   
 35  15  17  1   
 36  17  18  1   
 37  17  40  1   
 38  17  41  1   
 39  19  20  1   
 40  19  42  1   
 41  19  43  1   
 42  20  44  1   
 43  20  45  1   
 44  21  22  2   
 45  23  24  ar  
 46  23  27  1   
 47  24  28  1   
@<TRIPOS>SUBSTRUCTURE
  1 LIG   9 GROUP 4 **** **** 0
@<TRIPOS>PROPERTY_DATA
index	|	ligand010
Name	|	ANT-STE-dbb-1
ChemPlp	|	-94.379
MM-GBSA Nwat=0	|	-28.5238
STDEV0	|	2.4954
MM-GBSA Nwat=30	|	-45.3581
STDEV30	|	3.7367
MM-GBSA Nwat=60	|	-47.9619
STDEV60	|	3.5561
ST.DEV < 10%	|	Y
RMSD LIG < 2	|	Y
DIST < 5	|	N
DIST < 3.5	|	N

# MOE 2019.01 (io_trps.svl 2018.10)

@<TRIPOS>MOLECULE
ligand312
72 77 1 0 0 
SMALL
USER_CHARGES


@<TRIPOS>ATOM
  1 O1       5.5990    -3.9880    21.4580 O.2   1 LIG   0.0000 
  2 C2       5.5790    -5.0530    22.0120 C.2   1 LIG   0.0000 
  3 C3       6.3130    -6.2380    21.4070 C.3   1 LIG   0.0000 
  4 CL6      7.8150    -6.5330    22.3160 Cl    1 LIG   0.0000 
  5 N7       4.8790    -5.2030    23.2150 N.am  1 LIG   0.0000 
  6 C8       4.8800    -6.5230    23.8610 C.3   1 LIG   0.0000 
  7 C11      3.6730    -6.6490    24.7770 C.ar  1 LIG   0.0000 
  8 C12      3.0100    -7.8640    24.9210 C.ar  1 LIG   0.0000 
  9 C14      1.9110    -7.9610    25.7680 C.ar  1 LIG   0.0000 
 10 C16      1.4540    -6.8600    26.4840 C.ar  1 LIG   0.0000 
 11 C18      2.1260    -5.6540    26.3220 C.ar  1 LIG   0.0000 
 12 C20      3.2260    -5.5340    25.4780 C.ar  1 LIG   0.0000 
 13 C21      3.9460    -4.2090    25.2950 C.3   1 LIG   0.0000 
 14 C22      3.1400    -2.9980    25.7400 C.ar  1 LIG   0.0000 
 15 C23      3.7200    -2.0570    26.5840 C.ar  1 LIG   0.0000 
 16 C25      2.9780    -0.9520    26.9900 C.ar  1 LIG   0.0000 
 17 C27      1.6680    -0.7940    26.5510 C.ar  1 LIG   0.0000 
 18 C29      1.0990    -1.7410    25.7080 C.ar  1 LIG   0.0000 
 19 C31      1.8300    -2.8510    25.2960 C.ar  1 LIG   0.0000 
 20 C33      4.1680    -4.0550    23.8010 C.3   1 LIG   0.0000 
 21 N34      4.9380    -2.8330    23.5320 N.4   1 LIG   1.0000 
 22 C37      6.1760    -2.8490    24.3240 C.3   1 LIG   0.0000 
 23 C40      7.1970    -1.9100    23.6910 C.2   1 LIG   0.0000 
 24 C41      8.6010    -2.0260    23.8340 C.2   1 LIG   0.0000 
 25 C43      9.1470    -0.9980    23.1240 C.2   1 LIG   0.0000 
 26 C44     10.5670    -0.7300    23.0050 C.ar  1 LIG   0.0000 
 27 C45     11.4200    -1.7120    22.5130 C.ar  1 LIG   0.0000 
 28 C47     12.7830    -1.4550    22.3980 C.ar  1 LIG   0.0000 
 29 C49     13.2920    -0.2170    22.7760 C.ar  1 LIG   0.0000 
 30 C51     12.4390     0.7640    23.2690 C.ar  1 LIG   0.0000 
 31 C53     11.0770     0.5080    23.3840 C.ar  1 LIG   0.0000 
 32 F54     10.2610     1.4470    23.8560 F     1 LIG   0.0000 
 33 N55      8.1270    -0.2850    22.5550 N.pl3 1 LIG   0.0000 
 34 S56      8.3250     1.0790    21.5750 S.o2  1 LIG   0.0000 
 35 O57      8.0380     2.2650    22.3410 O.2   1 LIG   0.0000 
 36 O58      9.6810     1.1330    21.0960 O.2   1 LIG   0.0000 
 37 C59      7.2350     0.9850    20.2230 C.ar  1 LIG   0.0000 
 38 C60      5.9620     1.5370    20.3230 C.ar  1 LIG   0.0000 
 39 C62      5.0920     1.4620    19.2420 C.ar  1 LIG   0.0000 
 40 C64      5.5180     0.8310    18.0770 C.ar  1 LIG   0.0000 
 41 N66      6.7480     0.3040    17.9990 N.ar  1 LIG   0.0000 
 42 C67      7.6020     0.3670    19.0320 C.ar  1 LIG   0.0000 
 43 C69      6.9210    -0.8280    22.8940 C.2   1 LIG   0.0000 
 44 H12      3.3250    -8.6680    24.4160 H     1 LIG   0.0000 
 45 H14      1.4410    -8.8380    25.8630 H     1 LIG   0.0000 
 46 H16      0.6670    -6.9340    27.0970 H     1 LIG   0.0000 
 47 H18      1.8100    -4.8500    26.8260 H     1 LIG   0.0000 
 48 H23      4.6620    -2.1730    26.8970 H     1 LIG   0.0000 
 49 H25      3.3880    -0.2710    27.5970 H     1 LIG   0.0000 
 50 H27      1.1350     0.0000    26.8420 H     1 LIG   0.0000 
 51 H29      0.1570    -1.6240    25.3950 H     1 LIG   0.0000 
 52 H31      1.4200    -3.5320    24.6890 H     1 LIG   0.0000 
 53 H41      9.0940    -2.7230    24.3540 H     1 LIG   0.0000 
 54 H69      6.0170    -0.5020    22.6160 H     1 LIG   0.0000 
 55 H45     11.0550    -2.6020    22.2410 H     1 LIG   0.0000 
 56 H47     13.3960    -2.1610    22.0420 H     1 LIG   0.0000 
 57 H49     14.2710    -0.0330    22.6940 H     1 LIG   0.0000 
 58 H51     12.8050     1.6540    23.5410 H     1 LIG   0.0000 
 59 H60      5.6750     1.9870    21.1690 H     1 LIG   0.0000 
 60 H62      4.1740     1.8550    19.3000 H     1 LIG   0.0000 
 61 H64      4.9010     0.7700    17.2920 H     1 LIG   0.0000 
 62 H67      8.5140    -0.0350    18.9440 H     1 LIG   0.0000 
 63 H31      5.7310    -7.0500    21.4530 H     1 LIG   0.0000 
 64 H32      6.5350    -6.0410    20.4520 H     1 LIG   0.0000 
 65 H81      5.7170    -6.6300    24.3980 H     1 LIG   0.0000 
 66 H82      4.8410    -7.2360    23.1600 H     1 LIG   0.0000 
 67 H21      4.8250    -4.2280    25.7710 H     1 LIG   0.0000 
 68 H33      3.2770    -3.9730    23.3550 H     1 LIG   0.0000 
 69 H341     4.3920    -2.0340    23.7830 H     1 LIG   0.0000 
 70 H342     5.1650    -2.7900    22.5590 H     1 LIG   0.0000 
 71 H371     6.5450    -3.7780    24.3460 H     1 LIG   0.0000 
 72 H372     5.9780    -2.5470    25.2570 H     1 LIG   0.0000 
@<TRIPOS>BOND
  1   1   2  2   
  2   2   3  1   
  3   2   5  am  
  4   3   4  1   
  5   3  63  1   
  6   3  64  1   
  7   5   6  1   
  8   5  20  1   
  9   6   7  1   
 10   6  65  1   
 11   6  66  1   
 12   7   8  ar  
 13   7  12  ar  
 14   8   9  ar  
 15   8  44  1   
 16   9  10  ar  
 17   9  45  1   
 18  10  11  ar  
 19  10  46  1   
 20  11  12  ar  
 21  11  47  1   
 22  12  13  1   
 23  13  14  1   
 24  13  20  1   
 25  13  67  1   
 26  14  15  ar  
 27  14  19  ar  
 28  15  16  ar  
 29  15  48  1   
 30  16  17  ar  
 31  16  49  1   
 32  17  18  ar  
 33  17  50  1   
 34  18  19  ar  
 35  18  51  1   
 36  19  52  1   
 37  20  21  1   
 38  20  68  1   
 39  21  22  1   
 40  21  69  1   
 41  21  70  1   
 42  22  23  1   
 43  22  71  1   
 44  22  72  1   
 45  23  24  1   
 46  23  43  2   
 47  24  25  2   
 48  24  53  1   
 49  25  26  1   
 50  25  33  1   
 51  26  27  ar  
 52  26  31  ar  
 53  27  28  ar  
 54  27  55  1   
 55  28  29  ar  
 56  28  56  1   
 57  29  30  ar  
 58  29  57  1   
 59  30  31  ar  
 60  30  58  1   
 61  31  32  1   
 62  33  34  1   
 63  33  43  1   
 64  34  35  2   
 65  34  36  2   
 66  34  37  1   
 67  37  38  ar  
 68  37  42  ar  
 69  38  39  ar  
 70  38  59  1   
 71  39  40  ar  
 72  39  60  1   
 73  40  41  ar  
 74  40  61  1   
 75  41  42  ar  
 76  42  62  1   
 77  43  54  1   
@<TRIPOS>SUBSTRUCTURE
  1 LIG  23 GROUP 4 **** **** 0
@<TRIPOS>PROPERTY_DATA
index	|	ligand312
Name	|	MAK-UNK-702-7
ChemPlp	|	-99.4021
MM-GBSA Nwat=0	|	16.6047
STDEV0	|	5.1782
MM-GBSA Nwat=30	|	131.502
STDEV30	|	12.1163
MM-GBSA Nwat=60	|	113.224
STDEV60	|	13.1552
ST.DEV < 10%	|	Y
RMSD LIG < 2	|	Y
DIST < 5	|	N
DIST < 3.5	|	N

# MOE 2019.01 (io_trps.svl 2018.10)

@<TRIPOS>MOLECULE
ligand357
59 60 1 0 0 
SMALL
USER_CHARGES


@<TRIPOS>ATOM
  1 C1       6.1100    -5.6340    19.8980 C.3   1 LIG   0.0000 
  2 O5       6.6960    -5.6220    21.1920 O.3   1 LIG   0.0000 
  3 C6       6.2100    -4.8400    22.1230 C.2   1 LIG   0.0000 
  4 O7       5.2630    -4.1420    21.8870 O.2   1 LIG   0.0000 
  5 C8       6.8470    -4.8150    23.5030 C.3   1 LIG   0.0000 
  6 N9       5.8890    -4.2690    24.4760 N.am  1 LIG   0.0000 
  7 S11      5.3760    -5.4620    25.4610 S.o2  1 LIG   0.0000 
  8 O12      6.4800    -5.9370    26.2550 O.2   1 LIG   0.0000 
  9 O13      4.3440    -4.9570    26.3280 O.2   1 LIG   0.0000 
 10 N14      4.7830    -6.6880    24.5660 N.am  1 LIG   0.0000 
 11 S16      3.4240    -7.2600    25.2620 S.o2  1 LIG   0.0000 
 12 N17      3.6620    -7.4220    26.8670 N.am  1 LIG   0.0000 
 13 O20      2.3410    -6.3400    25.0280 O.2   1 LIG   0.0000 
 14 O21      3.0960    -8.5420    24.6940 O.2   1 LIG   0.0000 
 15 C22      8.0910    -3.9420    23.4720 C.ar  1 LIG   0.0000 
 16 C23      8.2090    -2.9330    22.5210 C.ar  1 LIG   0.0000 
 17 C25      9.3420    -2.1280    22.4830 C.ar  1 LIG   0.0000 
 18 C27     10.3560    -2.3470    23.4090 C.ar  1 LIG   0.0000 
 19 C28     11.6010    -1.4740    23.3780 C.3   1 LIG   0.0000 
 20 N31     11.2070    -0.0590    23.3450 N.4   1 LIG   1.0000 
 21 C33     11.7960     0.5800    24.5340 C.3   1 LIG   0.0000 
 22 C36     11.4940     2.0700    24.5860 C.3   1 LIG   0.0000 
 23 N39     11.7140     2.7110    23.2800 N.am  1 LIG   0.0000 
 24 C40     12.1590     4.0380    23.2550 C.2   1 LIG   0.0000 
 25 O41     12.3520     4.6260    24.2830 O.2   1 LIG   0.0000 
 26 C42     12.3970     4.7340    21.9250 C.3   1 LIG   0.0000 
 27 CL45    13.5840     6.0430    22.1450 Cl    1 LIG   0.0000 
 28 C46     11.4960     2.0100    22.0050 C.3   1 LIG   0.0000 
 29 C49     11.7920     0.5220    22.1250 C.3   1 LIG   0.0000 
 30 C52     10.2500    -3.3520    24.3650 C.ar  1 LIG   0.0000 
 31 C54      9.1120    -4.1510    24.3940 C.ar  1 LIG   0.0000 
 32 C55      9.0190    -5.2440    25.4470 C.3   1 LIG   0.0000 
 33 H23      7.4730    -2.7860    21.8600 H     1 LIG   0.0000 
 34 H25      9.4270    -1.4030    21.7990 H     1 LIG   0.0000 
 35 H52     10.9870    -3.4990    25.0260 H     1 LIG   0.0000 
 36 H11      6.6010    -6.2830    19.3160 H     1 LIG   0.0000 
 37 H12      5.1510    -5.9090    19.9690 H     1 LIG   0.0000 
 38 H13      6.1670    -4.7190    19.4990 H     1 LIG   0.0000 
 39 H8       7.1000    -5.7450    23.7700 H     1 LIG   0.0000 
 40 H281    12.1500    -1.6490    24.1960 H     1 LIG   0.0000 
 41 H282    12.1390    -1.6900    22.5630 H     1 LIG   0.0000 
 42 H31     10.2110     0.0360    23.3450 H     1 LIG   0.0000 
 43 H331    12.7880     0.4520    24.5120 H     1 LIG   0.0000 
 44 H332    11.4220     0.1450    25.3530 H     1 LIG   0.0000 
 45 H361    10.5400     2.1990    24.8550 H     1 LIG   0.0000 
 46 H362    12.0920     2.4990    25.2640 H     1 LIG   0.0000 
 47 H421    12.7480     4.0740    21.2610 H     1 LIG   0.0000 
 48 H422    11.5360     5.1180    21.5910 H     1 LIG   0.0000 
 49 H461    12.0980     2.4040    21.3110 H     1 LIG   0.0000 
 50 H462    10.5430     2.1300    21.7270 H     1 LIG   0.0000 
 51 H491    11.4100     0.0510    21.3290 H     1 LIG   0.0000 
 52 H492    12.7820     0.3890    22.1470 H     1 LIG   0.0000 
 53 H551     9.8450    -5.2350    26.0110 H     1 LIG   0.0000 
 54 H552     8.2190    -5.0820    26.0260 H     1 LIG   0.0000 
 55 H553     8.9310    -6.1330    24.9980 H     1 LIG   0.0000 
 56 H9       6.3340    -3.5570    25.0180 H     1 LIG   0.0000 
 57 H14      5.4620    -7.4200    24.5110 H     1 LIG   0.0000 
 58 H171     3.7760    -8.3900    27.0910 H     1 LIG   0.0000 
 59 H17      4.4830    -6.9180    27.1340 H     1 LIG   0.0000 
@<TRIPOS>BOND
  1   1   2  1   
  2   1  36  1   
  3   1  37  1   
  4   1  38  1   
  5   2   3  1   
  6   3   4  2   
  7   3   5  1   
  8   5   6  1   
  9   5  15  1   
 10   5  39  1   
 11   6   7  am  
 12   6  56  1   
 13   7   8  2   
 14   7   9  2   
 15   7  10  am  
 16  10  11  am  
 17  10  57  1   
 18  11  12  am  
 19  11  13  2   
 20  11  14  2   
 21  12  58  1   
 22  12  59  1   
 23  15  16  ar  
 24  15  31  ar  
 25  16  17  ar  
 26  16  33  1   
 27  17  18  ar  
 28  17  34  1   
 29  18  19  1   
 30  18  30  ar  
 31  19  20  1   
 32  19  40  1   
 33  19  41  1   
 34  20  21  1   
 35  20  29  1   
 36  20  42  1   
 37  21  22  1   
 38  21  43  1   
 39  21  44  1   
 40  22  23  1   
 41  22  45  1   
 42  22  46  1   
 43  23  24  am  
 44  23  28  1   
 45  24  25  2   
 46  24  26  1   
 47  26  27  1   
 48  26  47  1   
 49  26  48  1   
 50  28  29  1   
 51  28  49  1   
 52  28  50  1   
 53  29  51  1   
 54  29  52  1   
 55  30  31  ar  
 56  30  35  1   
 57  31  32  1   
 58  32  53  1   
 59  32  54  1   
 60  32  55  1   
@<TRIPOS>SUBSTRUCTURE
  1 LIG  16 GROUP 4 **** **** 0
@<TRIPOS>PROPERTY_DATA
index	|	ligand357
Name	|	MAK-UNK-af8-14
ChemPlp	|	-100.544
MM-GBSA Nwat=0	|	43.1348
STDEV0	|	8.5604
MM-GBSA Nwat=30	|	317.997
STDEV30	|	16.0806
MM-GBSA Nwat=60	|	315.764
STDEV60	|	16.08
ST.DEV < 10%	|	Y
RMSD LIG < 2	|	Y
DIST < 5	|	N
DIST < 3.5	|	N

# MOE 2019.01 (io_trps.svl 2018.10)

@<TRIPOS>MOLECULE
ligand471
51 53 1 0 0 
SMALL
NO_CHARGES


@<TRIPOS>ATOM
  1 C1      11.4710     7.0550    28.1070 C.3   1 LIG   0.0000 
  2 C5      12.7620     7.5690    27.4910 C.2   1 LIG   0.0000 
  3 O6      13.5720     8.1310    28.1750 O.2   1 LIG   0.0000 
  4 N7      13.0010     7.3910    26.1540 N.am  1 LIG   0.0000 
  5 C9      12.0090     6.7030    25.3150 C.3   1 LIG   0.0000 
  6 C12     12.6400     5.4660    24.6950 C.3   1 LIG   0.0000 
  7 C15     11.5810     4.6850    23.9340 C.2   1 LIG   0.0000 
  8 C16     10.3440     5.1560    23.6060 C.2   1 LIG   0.0000 
  9 N18      9.6910     4.1670    22.9300 N.pl3 1 LIG   0.0000 
 10 C20     10.5250     3.0890    22.8440 C.ar  1 LIG   0.0000 
 11 C21     10.3250     1.8440    22.2590 C.ar  1 LIG   0.0000 
 12 N22      9.0990     1.5730    21.6390 N.pl3 1 LIG   0.0000 
 13 C24      8.8380     0.2390    21.0780 C.3   1 LIG   0.0000 
 14 C26      8.8000    -0.7560    22.2290 C.3   1 LIG   0.0000 
 15 C29      8.4480    -2.1630    21.7670 C.3   1 LIG   0.0000 
 16 N32      7.3070    -2.1690    20.8350 N.am  1 LIG   0.0000 
 17 C33      6.4390    -3.2670    20.8550 C.2   1 LIG   0.0000 
 18 O34      5.5000    -3.3030    20.1080 O.2   1 LIG   0.0000 
 19 C35      6.6860    -4.4140    21.8220 C.3   1 LIG   0.0000 
 20 CL38     6.1000    -5.9330    21.1030 Cl    1 LIG   0.0000 
 21 C39      7.0300    -1.0750    19.8890 C.3   1 LIG   0.0000 
 22 C42      7.4570     0.2800    20.4360 C.3   1 LIG   0.0000 
 23 C45     11.3200     0.8710    22.2790 C.ar  1 LIG   0.0000 
 24 C47     12.5360     1.1500    22.8950 C.ar  1 LIG   0.0000 
 25 F48     13.4810     0.2140    22.9070 F     1 LIG   0.0000 
 26 C49     12.7290     2.3970    23.4790 C.ar  1 LIG   0.0000 
 27 C51     11.7290     3.3630    23.4560 C.ar  1 LIG   0.0000 
 28 H16      9.9810     6.0630    23.8230 H     1 LIG   0.0000 
 29 H18      8.7630     4.2220    22.5620 H     1 LIG   0.0000 
 30 H45     11.1630    -0.0210    21.8550 H     1 LIG   0.0000 
 31 H49     13.6020     2.6020    23.9230 H     1 LIG   0.0000 
 32 H11     10.9160     6.6170    27.4000 H     1 LIG   0.0000 
 33 H12     11.6850     6.3910    28.8230 H     1 LIG   0.0000 
 34 H13     10.9630     7.8200    28.5030 H     1 LIG   0.0000 
 35 H91     11.7010     7.3190    24.5900 H     1 LIG   0.0000 
 36 H92     11.2270     6.4330    25.8770 H     1 LIG   0.0000 
 37 H121    13.3670     5.7420    24.0660 H     1 LIG   0.0000 
 38 H122    13.0240     4.8910    25.4170 H     1 LIG   0.0000 
 39 H24      9.5370    -0.0120    20.4080 H     1 LIG   0.0000 
 40 H261     8.1160    -0.4550    22.8920 H     1 LIG   0.0000 
 41 H262     9.7000    -0.7770    22.6650 H     1 LIG   0.0000 
 42 H291     9.2420    -2.5600    21.3070 H     1 LIG   0.0000 
 43 H292     8.2140    -2.7160    22.5660 H     1 LIG   0.0000 
 44 H351     7.6660    -4.4890    22.0060 H     1 LIG   0.0000 
 45 H352     6.1980    -4.2390    22.6770 H     1 LIG   0.0000 
 46 H391     6.0480    -1.0520    19.7020 H     1 LIG   0.0000 
 47 H392     7.5270    -1.2500    19.0390 H     1 LIG   0.0000 
 48 H421     7.4720     0.9400    19.6850 H     1 LIG   0.0000 
 49 H422     6.7930     0.5730    21.1230 H     1 LIG   0.0000 
 50 H7      13.8500     7.7290    25.7480 H     1 LIG   0.0000 
 51 H22      8.4010     2.2860    21.5780 H     1 LIG   0.0000 
@<TRIPOS>BOND
  1   1   2  1   
  2   1  32  1   
  3   1  33  1   
  4   1  34  1   
  5   2   3  2   
  6   2   4  am  
  7   4   5  1   
  8   4  50  1   
  9   5   6  1   
 10   5  35  1   
 11   5  36  1   
 12   6   7  1   
 13   6  37  1   
 14   6  38  1   
 15   7   8  2   
 16   7  27  1   
 17   8   9  1   
 18   8  28  1   
 19   9  10  1   
 20   9  29  1   
 21  10  11  ar  
 22  10  27  ar  
 23  11  12  1   
 24  11  23  ar  
 25  12  13  1   
 26  12  51  1   
 27  13  14  1   
 28  13  22  1   
 29  13  39  1   
 30  14  15  1   
 31  14  40  1   
 32  14  41  1   
 33  15  16  1   
 34  15  42  1   
 35  15  43  1   
 36  16  17  am  
 37  16  21  1   
 38  17  18  2   
 39  17  19  1   
 40  19  20  1   
 41  19  44  1   
 42  19  45  1   
 43  21  22  1   
 44  21  46  1   
 45  21  47  1   
 46  22  48  1   
 47  22  49  1   
 48  23  24  ar  
 49  23  30  1   
 50  24  25  1   
 51  24  26  ar  
 52  26  27  ar  
 53  26  31  1   
@<TRIPOS>SUBSTRUCTURE
  1 LIG  11 GROUP 4 **** **** 0
@<TRIPOS>PROPERTY_DATA
index	|	ligand471
Name	|	NIR-THE-0d6-3
ChemPlp	|	-92.864
MM-GBSA Nwat=0	|	-31.5293
STDEV0	|	3.0106
MM-GBSA Nwat=30	|	-63.5644
STDEV30	|	5.9979
MM-GBSA Nwat=60	|	-69.2724
STDEV60	|	6.1476
ST.DEV < 10%	|	Y
RMSD LIG < 2	|	N
DIST < 5	|	Y
DIST < 3.5	|	N

# MOE 2019.01 (io_trps.svl 2018.10)

@<TRIPOS>MOLECULE
ligand369
62 64 1 0 0 
SMALL
USER_CHARGES


@<TRIPOS>ATOM
  1 C1      12.9080     0.6650    24.5680 C.3   1 LIG   0.0000 
  2 C5      12.4060     1.2120    23.2390 C.3   1 LIG   0.0000 
  3 O6      11.4640     0.3470    22.6190 O.3   1 LIG   0.0000 
  4 C7      10.2230     1.0170    22.4980 C.3   1 LIG   0.0000 
  5 C8       9.4760     0.5220    21.2700 C.3   1 LIG   0.0000 
  6 N11      8.5110    -0.5130    21.6660 N.4   1 LIG   1.0000 
  7 C13      7.6120    -0.7260    20.5200 C.3   1 LIG   0.0000 
  8 C16      6.5890    -1.8180    20.7950 C.3   1 LIG   0.0000 
  9 N19      7.2140    -3.0000    21.4080 N.am  1 LIG   0.0000 
 10 C20      6.6830    -4.2620    21.1180 C.2   1 LIG   0.0000 
 11 O21      5.7390    -4.3600    20.3830 O.2   1 LIG   0.0000 
 12 C22      7.3010    -5.5070    21.7320 C.3   1 LIG   0.0000 
 13 CL25     6.1280    -6.2710    22.8310 Cl    1 LIG   0.0000 
 14 C26      8.3800    -2.9080    22.3020 C.3   1 LIG   0.0000 
 15 C29      9.2810    -1.7390    21.9320 C.3   1 LIG   0.0000 
 16 C32     10.5970     2.4750    22.3780 C.3   1 LIG   0.0000 
 17 O33     11.1390     2.7670    21.0950 O.3   1 LIG   0.0000 
 18 C35     11.7050     2.5470    23.4030 C.3   1 LIG   0.0000 
 19 O36     11.1150     2.6820    24.6870 O.3   1 LIG   0.0000 
 20 C37     10.3460     3.8750    24.7320 C.3   1 LIG   0.0000 
 21 C40     11.2400     5.0660    24.4280 C.3   1 LIG   0.0000 
 22 C43     10.3790     6.2760    24.1050 C.3   1 LIG   0.0000 
 23 N46      9.5960     6.0100    22.8890 N.pl3 1 LIG   0.0000 
 24 C48      8.3820     6.6750    22.6800 C.ar  1 LIG   0.0000 
 25 C49      7.9630     7.5930    23.6380 C.ar  1 LIG   0.0000 
 26 C51      6.7590     8.2620    23.4440 C.ar  1 LIG   0.0000 
 27 C53      5.9960     8.0120    22.3080 C.ar  1 LIG   0.0000 
 28 C54      4.6800     8.7490    22.1060 C.1   1 LIG   0.0000 
 29 N55      3.6950     9.3010    21.9540 N.1   1 LIG   0.0000 
 30 C56      6.4710     7.0820    21.3880 C.ar  1 LIG   0.0000 
 31 N58      7.6340     6.4450    21.5900 N.ar  1 LIG   0.0000 
 32 H49      8.5170     7.7680    24.4510 H     1 LIG   0.0000 
 33 H51      6.4420     8.9250    24.1220 H     1 LIG   0.0000 
 34 H56      5.9390     6.8870    20.5650 H     1 LIG   0.0000 
 35 H11     13.5650     1.3050    24.9660 H     1 LIG   0.0000 
 36 H12     12.1360     0.5480    25.1930 H     1 LIG   0.0000 
 37 H13     13.3510    -0.2190    24.4190 H     1 LIG   0.0000 
 38 H5      13.1860     1.3320    22.6260 H     1 LIG   0.0000 
 39 H7       9.6710     0.8700    23.3190 H     1 LIG   0.0000 
 40 H81      8.9900     1.2860    20.8450 H     1 LIG   0.0000 
 41 H82     10.1280     0.1370    20.6160 H     1 LIG   0.0000 
 42 H11      7.9970    -0.2310    22.4770 H     1 LIG   0.0000 
 43 H131     8.1590    -0.9880    19.7250 H     1 LIG   0.0000 
 44 H132     7.1290     0.1280    20.3250 H     1 LIG   0.0000 
 45 H161     5.8920    -1.4600    21.4160 H     1 LIG   0.0000 
 46 H162     6.1620    -2.0870    19.9320 H     1 LIG   0.0000 
 47 H221     7.5460    -6.1500    21.0070 H     1 LIG   0.0000 
 48 H222     8.1220    -5.2540    22.2440 H     1 LIG   0.0000 
 49 H261     8.9060    -3.7560    22.2370 H     1 LIG   0.0000 
 50 H262     8.0600    -2.7850    23.2410 H     1 LIG   0.0000 
 51 H291     9.9140    -1.5670    22.6870 H     1 LIG   0.0000 
 52 H292     9.8000    -1.9790    21.1110 H     1 LIG   0.0000 
 53 H32      9.8340     3.0780    22.6080 H     1 LIG   0.0000 
 54 H35     12.3260     3.3070    23.2100 H     1 LIG   0.0000 
 55 H371     9.9480     3.9810    25.6430 H     1 LIG   0.0000 
 56 H372     9.6140     3.8260    24.0520 H     1 LIG   0.0000 
 57 H401    11.8240     4.8540    23.6450 H     1 LIG   0.0000 
 58 H402    11.8110     5.2660    25.2240 H     1 LIG   0.0000 
 59 H431     9.7590     6.4580    24.8680 H     1 LIG   0.0000 
 60 H432    10.9660     7.0730    23.9560 H     1 LIG   0.0000 
 61 H46      9.9310     5.3550    22.2130 H     1 LIG   0.0000 
 62 H33     11.0240     3.7410    20.8990 H     1 LIG   0.0000 
@<TRIPOS>BOND
  1   1   2  1   
  2   1  35  1   
  3   1  36  1   
  4   1  37  1   
  5   2   3  1   
  6   2  18  1   
  7   2  38  1   
  8   3   4  1   
  9   4   5  1   
 10   4  16  1   
 11   4  39  1   
 12   5   6  1   
 13   5  40  1   
 14   5  41  1   
 15   6   7  1   
 16   6  15  1   
 17   6  42  1   
 18   7   8  1   
 19   7  43  1   
 20   7  44  1   
 21   8   9  1   
 22   8  45  1   
 23   8  46  1   
 24   9  10  am  
 25   9  14  1   
 26  10  11  2   
 27  10  12  1   
 28  12  13  1   
 29  12  47  1   
 30  12  48  1   
 31  14  15  1   
 32  14  49  1   
 33  14  50  1   
 34  15  51  1   
 35  15  52  1   
 36  16  17  1   
 37  16  18  1   
 38  16  53  1   
 39  17  62  1   
 40  18  19  1   
 41  18  54  1   
 42  19  20  1   
 43  20  21  1   
 44  20  55  1   
 45  20  56  1   
 46  21  22  1   
 47  21  57  1   
 48  21  58  1   
 49  22  23  1   
 50  22  59  1   
 51  22  60  1   
 52  23  24  1   
 53  23  61  1   
 54  24  25  ar  
 55  24  31  ar  
 56  25  26  ar  
 57  25  32  1   
 58  26  27  ar  
 59  26  33  1   
 60  27  28  1   
 61  27  30  ar  
 62  28  29  3   
 63  30  31  ar  
 64  30  34  1   
@<TRIPOS>SUBSTRUCTURE
  1 LIG   4 GROUP 4 **** **** 0
@<TRIPOS>PROPERTY_DATA
index	|	ligand369
Name	|	MAK-UNK-af8-25
ChemPlp	|	-102.327
MM-GBSA Nwat=0	|	-28.4936
STDEV0	|	3.6784
MM-GBSA Nwat=30	|	-56.3802
STDEV30	|	5.2139
MM-GBSA Nwat=60	|	-67.6998
STDEV60	|	4.8402
ST.DEV < 10%	|	Y
RMSD LIG < 2	|	N
DIST < 5	|	Y
DIST < 3.5	|	N

# MOE 2019.01 (io_trps.svl 2018.10)

@<TRIPOS>MOLECULE
ligand292
56 58 1 0 0 
SMALL
USER_CHARGES


@<TRIPOS>ATOM
  1 C1      12.3970     6.9360    26.4780 C.3   1 LIG   0.0000 
  2 O5      12.4000     7.1850    25.0800 O.3   1 LIG   0.0000 
  3 C6      12.8220     6.0170    24.3920 C.3   1 LIG   0.0000 
  4 C7      12.8510     6.2780    22.8940 C.3   1 LIG   0.0000 
  5 C10     13.2990     5.0280    22.1540 C.3   1 LIG   0.0000 
  6 C13     12.3490     3.8800    22.4560 C.3   1 LIG   0.0000 
  7 C16     12.3110     3.6150    23.9520 C.3   1 LIG   0.0000 
  8 O17     11.4230     2.5450    24.2340 O.3   1 LIG   0.0000 
  9 C18     11.7500     1.2850    23.8780 C.ar  1 LIG   0.0000 
 10 C19     12.9580     1.0460    23.2290 C.ar  1 LIG   0.0000 
 11 C21     13.3030    -0.2490    22.8570 C.ar  1 LIG   0.0000 
 12 C23     12.4430    -1.3060    23.1350 C.ar  1 LIG   0.0000 
 13 C25     11.2390    -1.0540    23.7850 C.ar  1 LIG   0.0000 
 14 C26     10.2910    -2.2000    24.0930 C.3   1 LIG   0.0000 
 15 N29      9.6220    -2.6300    22.8570 N.4   1 LIG   1.0000 
 16 C31      8.6100    -3.6280    23.2390 C.3   1 LIG   0.0000 
 17 C34      7.8130    -4.1170    22.0390 C.3   1 LIG   0.0000 
 18 N37      7.3880    -3.0000    21.1810 N.am  1 LIG   0.0000 
 19 C38      6.1710    -3.1080    20.4990 C.2   1 LIG   0.0000 
 20 O39      5.5000    -4.0960    20.6210 O.2   1 LIG   0.0000 
 21 C40      5.6980    -1.9740    19.6040 C.3   1 LIG   0.0000 
 22 CL43     5.8160    -0.4330    20.4860 Cl    1 LIG   0.0000 
 23 C44      8.1850    -1.7730    21.0240 C.3   1 LIG   0.0000 
 24 C47      8.9630    -1.4420    22.2900 C.3   1 LIG   0.0000 
 25 C50     10.8810     0.2370    24.1610 C.ar  1 LIG   0.0000 
 26 C52     11.8700     4.8700    24.6890 C.3   1 LIG   0.0000 
 27 H19     13.5770     1.8060    23.0300 H     1 LIG   0.0000 
 28 H21     14.1710    -0.4200    22.3890 H     1 LIG   0.0000 
 29 H23     12.6880    -2.2390    22.8700 H     1 LIG   0.0000 
 30 H50     10.0130     0.4080    24.6270 H     1 LIG   0.0000 
 31 H11     12.1000     7.7590    26.9620 H     1 LIG   0.0000 
 32 H12     11.7700     6.1850    26.6810 H     1 LIG   0.0000 
 33 H13     13.3200     6.6900    26.7740 H     1 LIG   0.0000 
 34 H6      13.7400     5.7690    24.6990 H     1 LIG   0.0000 
 35 H71     13.4890     7.0240    22.7010 H     1 LIG   0.0000 
 36 H72     11.9350     6.5350    22.5860 H     1 LIG   0.0000 
 37 H101    14.2220     4.7820    22.4480 H     1 LIG   0.0000 
 38 H102    13.3000     5.2080    21.1700 H     1 LIG   0.0000 
 39 H131    11.4310     4.1180    22.1380 H     1 LIG   0.0000 
 40 H132    12.6630     3.0580    21.9820 H     1 LIG   0.0000 
 41 H16     13.2290     3.3640    24.2600 H     1 LIG   0.0000 
 42 H261    10.8080    -2.9660    24.4760 H     1 LIG   0.0000 
 43 H262     9.6050    -1.8970    24.7550 H     1 LIG   0.0000 
 44 H29     10.2800    -3.0170    22.2100 H     1 LIG   0.0000 
 45 H311     7.9810    -3.2150    23.8980 H     1 LIG   0.0000 
 46 H312     9.0690    -4.4090    23.6620 H     1 LIG   0.0000 
 47 H341     8.3830    -4.7400    21.5030 H     1 LIG   0.0000 
 48 H342     7.0020    -4.6040    22.3640 H     1 LIG   0.0000 
 49 H401     6.2720    -1.9340    18.7860 H     1 LIG   0.0000 
 50 H402     4.7480    -2.1340    19.3370 H     1 LIG   0.0000 
 51 H441     7.5710    -1.0120    20.8130 H     1 LIG   0.0000 
 52 H442     8.8300    -1.8990    20.2710 H     1 LIG   0.0000 
 53 H471     9.6600    -0.7590    22.0710 H     1 LIG   0.0000 
 54 H472     8.3320    -1.0680    22.9690 H     1 LIG   0.0000 
 55 H521    10.9490     5.1200    24.3920 H     1 LIG   0.0000 
 56 H522    11.8660     4.6900    25.6720 H     1 LIG   0.0000 
@<TRIPOS>BOND
  1   1   2  1   
  2   1  31  1   
  3   1  32  1   
  4   1  33  1   
  5   2   3  1   
  6   3   4  1   
  7   3  26  1   
  8   3  34  1   
  9   4   5  1   
 10   4  35  1   
 11   4  36  1   
 12   5   6  1   
 13   5  37  1   
 14   5  38  1   
 15   6   7  1   
 16   6  39  1   
 17   6  40  1   
 18   7   8  1   
 19   7  26  1   
 20   7  41  1   
 21   8   9  1   
 22   9  10  ar  
 23   9  25  ar  
 24  10  11  ar  
 25  10  27  1   
 26  11  12  ar  
 27  11  28  1   
 28  12  13  ar  
 29  12  29  1   
 30  13  14  1   
 31  13  25  ar  
 32  14  15  1   
 33  14  42  1   
 34  14  43  1   
 35  15  16  1   
 36  15  24  1   
 37  15  44  1   
 38  16  17  1   
 39  16  45  1   
 40  16  46  1   
 41  17  18  1   
 42  17  47  1   
 43  17  48  1   
 44  18  19  am  
 45  18  23  1   
 46  19  20  2   
 47  19  21  1   
 48  21  22  1   
 49  21  49  1   
 50  21  50  1   
 51  23  24  1   
 52  23  51  1   
 53  23  52  1   
 54  24  53  1   
 55  24  54  1   
 56  25  30  1   
 57  26  55  1   
 58  26  56  1   
@<TRIPOS>SUBSTRUCTURE
  1 LIG  25 GROUP 4 **** **** 0
@<TRIPOS>PROPERTY_DATA
index	|	ligand292
Name	|	MAK-UNK-176-4
ChemPlp	|	-95.2514
MM-GBSA Nwat=0	|	-34.5622
STDEV0	|	3.0432
MM-GBSA Nwat=30	|	-51.7299
STDEV30	|	4.7279
MM-GBSA Nwat=60	|	-53.0879
STDEV60	|	4.496
ST.DEV < 10%	|	Y
RMSD LIG < 2	|	N
DIST < 5	|	Y
DIST < 3.5	|	Y

# MOE 2019.01 (io_trps.svl 2018.10)

@<TRIPOS>MOLECULE
ligand318
74 77 1 0 0 
SMALL
USER_CHARGES


@<TRIPOS>ATOM
  1 C1       4.1240     8.1680    20.5020 C.3   1 LIG   0.0000 
  2 N5       5.0450     7.2910    21.2400 N.4   1 LIG   1.0000 
  3 C8       6.3940     7.8750    21.2260 C.3   1 LIG   0.0000 
  4 C11      7.2460     7.2110    22.3020 C.2   1 LIG   0.0000 
  5 C12      7.6700     7.8360    23.4990 C.2   1 LIG   0.0000 
  6 C14      8.4090     6.9120    24.1770 C.2   1 LIG   0.0000 
  7 C15      9.0480     7.1350    25.4600 C.ar  1 LIG   0.0000 
  8 C16     10.2600     6.5190    25.7490 C.ar  1 LIG   0.0000 
  9 C18     10.8730     6.7330    26.9790 C.ar  1 LIG   0.0000 
 10 C20     10.2720     7.5620    27.9210 C.ar  1 LIG   0.0000 
 11 C22      9.0590     8.1770    27.6320 C.ar  1 LIG   0.0000 
 12 C24      8.4460     7.9640    26.4020 C.ar  1 LIG   0.0000 
 13 F25      7.2850     8.5520    26.1260 F     1 LIG   0.0000 
 14 N26      8.4300     5.7600    23.4390 N.pl3 1 LIG   0.0000 
 15 S27      9.2230     4.3350    23.8860 S.o2  1 LIG   0.0000 
 16 O28      8.6840     3.2310    23.1350 O.2   1 LIG   0.0000 
 17 O29      9.0290     4.0990    25.2930 O.2   1 LIG   0.0000 
 18 C30     10.9240     4.4880    23.5520 C.ar  1 LIG   0.0000 
 19 C31     11.4240     5.7060    23.1060 C.ar  1 LIG   0.0000 
 20 C33     12.7810     5.8430    22.8350 C.ar  1 LIG   0.0000 
 21 C35     13.6110     4.7430    23.0220 C.ar  1 LIG   0.0000 
 22 N37     13.1110     3.5750    23.4530 N.ar  1 LIG   0.0000 
 23 C38     11.8060     3.4260    23.7190 C.ar  1 LIG   0.0000 
 24 C39     11.2770     2.0860    24.2050 C.3   1 LIG   0.0000 
 25 C40     12.4000     1.3120    24.8770 C.3   1 LIG   0.0000 
 26 N44     10.7680     1.3160    23.0610 N.am  1 LIG   0.0000 
 27 C45     11.1730     1.6750    21.6940 C.3   1 LIG   0.0000 
 28 C49      9.9160     0.2630    23.2690 C.2   1 LIG   0.0000 
 29 O50      9.5850    -0.0300    24.3850 O.2   1 LIG   0.0000 
 30 C51      9.3890    -0.5330    22.0860 C.3   1 LIG   0.0000 
 31 C53      8.5240    -1.6600    22.6330 C.3   1 LIG   0.0000 
 32 C56      7.8740    -2.4780    21.5260 C.3   1 LIG   0.0000 
 33 N59      7.2840    -1.6230    20.4830 N.am  1 LIG   0.0000 
 34 C60      6.1400    -2.0790    19.8230 C.2   1 LIG   0.0000 
 35 O61      5.6640    -3.1420    20.1120 O.2   1 LIG   0.0000 
 36 C62      5.4980    -1.2280    18.7390 C.3   1 LIG   0.0000 
 37 CL65     5.2620     0.4280    19.3470 Cl    1 LIG   0.0000 
 38 C66      7.8350    -0.3120    20.1030 C.3   1 LIG   0.0000 
 39 C69      8.4900     0.3950    21.2820 C.3   1 LIG   0.0000 
 40 C72      7.7240     5.9250    22.2810 C.2   1 LIG   0.0000 
 41 H12      7.4670     8.7710    23.7910 H     1 LIG   0.0000 
 42 H72      7.5840     5.2440    21.5620 H     1 LIG   0.0000 
 43 H16     10.6920     5.9230    25.0720 H     1 LIG   0.0000 
 44 H18     11.7460     6.2920    27.1860 H     1 LIG   0.0000 
 45 H20     10.7120     7.7150    28.8060 H     1 LIG   0.0000 
 46 H22      8.6270     8.7740    28.3090 H     1 LIG   0.0000 
 47 H31     10.8080     6.4840    22.9790 H     1 LIG   0.0000 
 48 H33     13.1530     6.7140    22.5130 H     1 LIG   0.0000 
 49 H35     14.5890     4.8230    22.8330 H     1 LIG   0.0000 
 50 H11      3.2060     7.7710    20.5120 H     1 LIG   0.0000 
 51 H12      4.1020     9.0690    20.9370 H     1 LIG   0.0000 
 52 H13      4.4370     8.2610    19.5580 H     1 LIG   0.0000 
 53 H51      4.7320     7.1980    22.1850 H     1 LIG   0.0000 
 54 H52      5.0670     6.3900    20.8060 H     1 LIG   0.0000 
 55 H81      6.3340     8.8560    21.4060 H     1 LIG   0.0000 
 56 H82      6.8120     7.7260    20.3300 H     1 LIG   0.0000 
 57 H39     10.5370     2.2380    24.8610 H     1 LIG   0.0000 
 58 H401    12.7460     1.8360    25.6550 H     1 LIG   0.0000 
 59 H402    12.0520     0.4310    25.1970 H     1 LIG   0.0000 
 60 H403    13.1390     1.1610    24.2220 H     1 LIG   0.0000 
 61 H451    11.7920     2.4600    21.7250 H     1 LIG   0.0000 
 62 H452    11.6390     0.8990    21.2700 H     1 LIG   0.0000 
 63 H453    10.3620     1.9100    21.1580 H     1 LIG   0.0000 
 64 H51     10.1370    -0.8890    21.5260 H     1 LIG   0.0000 
 65 H531     7.8050    -1.2650    23.2060 H     1 LIG   0.0000 
 66 H532     9.0960    -2.2650    23.1870 H     1 LIG   0.0000 
 67 H561     8.5680    -3.0650    21.1080 H     1 LIG   0.0000 
 68 H562     7.1530    -3.0450    21.9240 H     1 LIG   0.0000 
 69 H621     6.0930    -1.2070    17.9360 H     1 LIG   0.0000 
 70 H622     4.6130    -1.6200    18.4880 H     1 LIG   0.0000 
 71 H661     7.0940     0.2610    19.7540 H     1 LIG   0.0000 
 72 H662     8.5200    -0.4450    19.3860 H     1 LIG   0.0000 
 73 H691     9.0400     1.1550    20.9360 H     1 LIG   0.0000 
 74 H692     7.7740     0.7490    21.8830 H     1 LIG   0.0000 
@<TRIPOS>BOND
  1   1   2  1   
  2   1  50  1   
  3   1  51  1   
  4   1  52  1   
  5   2   3  1   
  6   2  53  1   
  7   2  54  1   
  8   3   4  1   
  9   3  55  1   
 10   3  56  1   
 11   4   5  1   
 12   4  40  2   
 13   5   6  2   
 14   5  41  1   
 15   6   7  1   
 16   6  14  1   
 17   7   8  ar  
 18   7  12  ar  
 19   8   9  ar  
 20   8  43  1   
 21   9  10  ar  
 22   9  44  1   
 23  10  11  ar  
 24  10  45  1   
 25  11  12  ar  
 26  11  46  1   
 27  12  13  1   
 28  14  15  1   
 29  14  40  1   
 30  15  16  2   
 31  15  17  2   
 32  15  18  1   
 33  18  19  ar  
 34  18  23  ar  
 35  19  20  ar  
 36  19  47  1   
 37  20  21  ar  
 38  20  48  1   
 39  21  22  ar  
 40  21  49  1   
 41  22  23  ar  
 42  23  24  1   
 43  24  25  1   
 44  24  26  1   
 45  24  57  1   
 46  25  58  1   
 47  25  59  1   
 48  25  60  1   
 49  26  27  1   
 50  26  28  am  
 51  27  61  1   
 52  27  62  1   
 53  27  63  1   
 54  28  29  2   
 55  28  30  1   
 56  30  31  1   
 57  30  39  1   
 58  30  64  1   
 59  31  32  1   
 60  31  65  1   
 61  31  66  1   
 62  32  33  1   
 63  32  67  1   
 64  32  68  1   
 65  33  34  am  
 66  33  38  1   
 67  34  35  2   
 68  34  36  1   
 69  36  37  1   
 70  36  69  1   
 71  36  70  1   
 72  38  39  1   
 73  38  71  1   
 74  38  72  1   
 75  39  73  1   
 76  39  74  1   
 77  40  42  1   
@<TRIPOS>SUBSTRUCTURE
  1 LIG  16 GROUP 4 **** **** 0
@<TRIPOS>PROPERTY_DATA
index	|	ligand318
Name	|	MAK-UNK-8fd-10
ChemPlp	|	-99.181
MM-GBSA Nwat=0	|	55.2712
STDEV0	|	8.2128
MM-GBSA Nwat=30	|	140.046
STDEV30	|	11.7276
MM-GBSA Nwat=60	|	110.899
STDEV60	|	13.5326
ST.DEV < 10%	|	Y
RMSD LIG < 2	|	N
DIST < 5	|	Y
DIST < 3.5	|	N

# MOE 2019.01 (io_trps.svl 2018.10)

@<TRIPOS>MOLECULE
ligand095
52 54 1 0 0 
SMALL
USER_CHARGES


@<TRIPOS>ATOM
  1 C1      12.7930     5.1660    21.3020 C.3   1 LIG   0.0000 
  2 C5      13.4820     6.0330    22.3420 C.2   1 LIG   0.0000 
  3 O6      14.1680     6.9540    21.9950 O.2   1 LIG   0.0000 
  4 N7      13.3190     5.7640    23.6750 N.am  1 LIG   0.0000 
  5 C9      12.4780     4.6360    24.1000 C.3   1 LIG   0.0000 
  6 C12     13.1170     3.3310    23.6530 C.3   1 LIG   0.0000 
  7 C15     12.1990     2.1710    24.0030 C.2   1 LIG   0.0000 
  8 C16     11.1600     2.2170    24.8860 C.2   1 LIG   0.0000 
  9 N18     10.5890     0.9790    24.9240 N.pl3 1 LIG   0.0000 
 10 C20     11.2660     0.1520    24.0680 C.ar  1 LIG   0.0000 
 11 C21     11.0490    -1.1920    23.7830 C.ar  1 LIG   0.0000 
 12 C22      9.9190    -1.9600    24.4510 C.3   1 LIG   0.0000 
 13 N25      9.3990    -2.9730    23.5220 N.4   1 LIG   1.0000 
 14 C26      8.4170    -3.7770    24.2670 C.3   1 LIG   0.0000 
 15 C29      7.7690    -4.8380    23.3900 C.3   1 LIG   0.0000 
 16 N32      7.3620    -4.2880    22.0880 N.am  1 LIG   0.0000 
 17 C33      6.2240    -4.8160    21.4670 C.2   1 LIG   0.0000 
 18 O34      5.8670    -4.3880    20.4040 O.2   1 LIG   0.0000 
 19 C35      5.4400    -5.9320    22.1380 C.3   1 LIG   0.0000 
 20 CL38     4.2100    -5.2290    23.2160 Cl    1 LIG   0.0000 
 21 C39      8.0950    -3.1990    21.4230 C.3   1 LIG   0.0000 
 22 C42      8.7270    -2.2490    22.4290 C.3   1 LIG   0.0000 
 23 C45     11.8690    -1.8570    22.8770 C.ar  1 LIG   0.0000 
 24 C47     12.9060    -1.1670    22.2590 C.ar  1 LIG   0.0000 
 25 CL48    13.9520    -2.0300    21.1060 Cl    1 LIG   0.0000 
 26 C49     13.0920     0.1800    22.5680 C.ar  1 LIG   0.0000 
 27 C51     12.2800     0.8620    23.4720 C.ar  1 LIG   0.0000 
 28 H16     10.8690     3.0160    25.4120 H     1 LIG   0.0000 
 29 H18      9.8040     0.7180    25.4850 H     1 LIG   0.0000 
 30 H45     11.7140    -2.8230    22.6720 H     1 LIG   0.0000 
 31 H49     13.8380     0.6760    22.1230 H     1 LIG   0.0000 
 32 H11     12.2650     4.4500    21.7600 H     1 LIG   0.0000 
 33 H12     12.1790     5.7300    20.7500 H     1 LIG   0.0000 
 34 H13     13.4800     4.7450    20.7100 H     1 LIG   0.0000 
 35 H91     11.5710     4.7210    23.6860 H     1 LIG   0.0000 
 36 H92     12.3920     4.6400    25.0960 H     1 LIG   0.0000 
 37 H121    13.2640     3.3530    22.6640 H     1 LIG   0.0000 
 38 H122    13.9940     3.2130    24.1180 H     1 LIG   0.0000 
 39 H221    10.2630    -2.4090    25.2750 H     1 LIG   0.0000 
 40 H222     9.1860    -1.3260    24.6980 H     1 LIG   0.0000 
 41 H25     10.1380    -3.5480    23.1690 H     1 LIG   0.0000 
 42 H261     7.7040    -3.1700    24.6200 H     1 LIG   0.0000 
 43 H262     8.8800    -4.2270    25.0310 H     1 LIG   0.0000 
 44 H291     8.4240    -5.5790    23.2400 H     1 LIG   0.0000 
 45 H292     6.9620    -5.1980    23.8580 H     1 LIG   0.0000 
 46 H351     4.9920    -6.4910    21.4410 H     1 LIG   0.0000 
 47 H352     6.0640    -6.5030    22.6730 H     1 LIG   0.0000 
 48 H391     7.4590    -2.6850    20.8470 H     1 LIG   0.0000 
 49 H392     8.8160    -3.5940    20.8530 H     1 LIG   0.0000 
 50 H421     9.4000    -1.6790    21.9580 H     1 LIG   0.0000 
 51 H422     8.0120    -1.6680    22.8180 H     1 LIG   0.0000 
 52 H7      13.7720     6.3350    24.3600 H     1 LIG   0.0000 
@<TRIPOS>BOND
  1   1   2  1   
  2   1  32  1   
  3   1  33  1   
  4   1  34  1   
  5   2   3  2   
  6   2   4  am  
  7   4   5  1   
  8   4  52  1   
  9   5   6  1   
 10   5  35  1   
 11   5  36  1   
 12   6   7  1   
 13   6  37  1   
 14   6  38  1   
 15   7   8  2   
 16   7  27  1   
 17   8   9  1   
 18   8  28  1   
 19   9  10  1   
 20   9  29  1   
 21  10  11  ar  
 22  10  27  ar  
 23  11  12  1   
 24  11  23  ar  
 25  12  13  1   
 26  12  39  1   
 27  12  40  1   
 28  13  14  1   
 29  13  22  1   
 30  13  41  1   
 31  14  15  1   
 32  14  42  1   
 33  14  43  1   
 34  15  16  1   
 35  15  44  1   
 36  15  45  1   
 37  16  17  am  
 38  16  21  1   
 39  17  18  2   
 40  17  19  1   
 41  19  20  1   
 42  19  46  1   
 43  19  47  1   
 44  21  22  1   
 45  21  48  1   
 46  21  49  1   
 47  22  50  1   
 48  22  51  1   
 49  23  24  ar  
 50  23  30  1   
 51  24  25  1   
 52  24  26  ar  
 53  26  27  ar  
 54  26  31  1   
@<TRIPOS>SUBSTRUCTURE
  1 LIG  11 GROUP 4 **** **** 0
@<TRIPOS>PROPERTY_DATA
index	|	ligand095
Name	|	DAR-DIA-fb2-15
ChemPlp	|	-95.2741
MM-GBSA Nwat=0	|	-28.8983
STDEV0	|	4.0361
MM-GBSA Nwat=30	|	-66.78
STDEV30	|	5.9033
MM-GBSA Nwat=60	|	-75.5545
STDEV60	|	5.618
ST.DEV < 10%	|	Y
RMSD LIG < 2	|	N
DIST < 5	|	N
DIST < 3.5	|	N

# MOE 2019.01 (io_trps.svl 2018.10)

@<TRIPOS>MOLECULE
ligand364
56 57 1 0 0 
SMALL
USER_CHARGES


@<TRIPOS>ATOM
  1 C1       8.5480     6.2570    22.8920 C.3   1 LIG   0.0000 
  2 C5       9.8780     6.0820    23.6080 C.3   1 LIG   0.0000 
  3 N8      10.5040     4.8240    23.1770 N.4   1 LIG   1.0000 
  4 C11     11.7530     4.6180    23.9240 C.3   1 LIG   0.0000 
  5 C12     12.2990     3.2310    23.6250 C.3   1 LIG   0.0000 
  6 O15     11.3800     2.2510    24.0850 O.3   1 LIG   0.0000 
  7 C16     11.5650     0.9520    23.7690 C.ar  1 LIG   0.0000 
  8 C17     12.6040     0.5940    22.9160 C.ar  1 LIG   0.0000 
  9 C19     12.8020    -0.7430    22.5830 C.ar  1 LIG   0.0000 
 10 C21     11.9620    -1.7210    23.1040 C.ar  1 LIG   0.0000 
 11 C23     10.9260    -1.3500    23.9560 C.ar  1 LIG   0.0000 
 12 C24     10.0020    -2.4100    24.5310 C.3   1 LIG   0.0000 
 13 N27      9.4640    -3.2350    23.4400 N.4   1 LIG   1.0000 
 14 C29      8.5590    -4.2220    24.0530 C.3   1 LIG   0.0000 
 15 C32      7.8990    -5.1110    23.0100 C.3   1 LIG   0.0000 
 16 N35      7.3920    -4.3250    21.8740 N.am  1 LIG   0.0000 
 17 C36      6.2380    -4.7700    21.2170 C.2   1 LIG   0.0000 
 18 O37      5.8010    -4.1500    20.2870 O.2   1 LIG   0.0000 
 19 C38      5.5390    -6.0370    21.6820 C.3   1 LIG   0.0000 
 20 CL41     4.3150    -5.6250    22.9070 Cl    1 LIG   0.0000 
 21 C42      8.0420    -3.0880    21.4120 C.3   1 LIG   0.0000 
 22 C45      8.6990    -2.3360    22.5590 C.3   1 LIG   0.0000 
 23 C48     10.7180    -0.0170    24.2960 C.ar  1 LIG   0.0000 
 24 O50     12.7050     5.5960    23.5340 O.3   1 LIG   0.0000 
 25 C51     12.9820     5.4610    22.1480 C.3   1 LIG   0.0000 
 26 C54     13.9200     6.5720    21.7080 C.1   1 LIG   0.0000 
 27 N55     14.6240     7.4060    21.3770 N.1   1 LIG   0.0000 
 28 H17     13.2090     1.2970    22.5420 H     1 LIG   0.0000 
 29 H19     13.5480    -1.0000    21.9690 H     1 LIG   0.0000 
 30 H21     12.1000    -2.6830    22.8680 H     1 LIG   0.0000 
 31 H48      9.9710     0.2400    24.9090 H     1 LIG   0.0000 
 32 H11      8.1220     7.1130    23.1850 H     1 LIG   0.0000 
 33 H12      8.7020     6.2820    21.9050 H     1 LIG   0.0000 
 34 H13      7.9460     5.4910    23.1170 H     1 LIG   0.0000 
 35 H51     10.4800     6.8480    23.3840 H     1 LIG   0.0000 
 36 H52      9.7240     6.0570    24.5960 H     1 LIG   0.0000 
 37 H81      9.8800     4.0630    23.3550 H     1 LIG   0.0000 
 38 H82     10.7050     4.8690    22.1990 H     1 LIG   0.0000 
 39 H11     11.5730     4.7000    24.9040 H     1 LIG   0.0000 
 40 H121    12.4290     3.1300    22.6390 H     1 LIG   0.0000 
 41 H122    13.1760     3.1100    24.0910 H     1 LIG   0.0000 
 42 H241    10.5130    -2.9900    25.1660 H     1 LIG   0.0000 
 43 H242     9.2480    -1.9680    25.0180 H     1 LIG   0.0000 
 44 H27     10.2000    -3.6880    22.9370 H     1 LIG   0.0000 
 45 H291     7.8480    -3.7370    24.5610 H     1 LIG   0.0000 
 46 H292     9.0850    -4.7960    24.6810 H     1 LIG   0.0000 
 47 H321     8.5700    -5.7720    22.6740 H     1 LIG   0.0000 
 48 H322     7.1360    -5.5980    23.4350 H     1 LIG   0.0000 
 49 H381     5.0950    -6.4780    20.9020 H     1 LIG   0.0000 
 50 H382     6.2110    -6.6620    22.0800 H     1 LIG   0.0000 
 51 H421     7.3530    -2.4990    20.9900 H     1 LIG   0.0000 
 52 H422     8.7400    -3.3220    20.7350 H     1 LIG   0.0000 
 53 H451     9.3200    -1.6490    22.1820 H     1 LIG   0.0000 
 54 H452     7.9890    -1.8830    23.0980 H     1 LIG   0.0000 
 55 H511    12.1280     5.5200    21.6300 H     1 LIG   0.0000 
 56 H512    13.4130     4.5740    21.9790 H     1 LIG   0.0000 
@<TRIPOS>BOND
  1   1   2  1   
  2   1  32  1   
  3   1  33  1   
  4   1  34  1   
  5   2   3  1   
  6   2  35  1   
  7   2  36  1   
  8   3   4  1   
  9   3  37  1   
 10   3  38  1   
 11   4   5  1   
 12   4  24  1   
 13   4  39  1   
 14   5   6  1   
 15   5  40  1   
 16   5  41  1   
 17   6   7  1   
 18   7   8  ar  
 19   7  23  ar  
 20   8   9  ar  
 21   8  28  1   
 22   9  10  ar  
 23   9  29  1   
 24  10  11  ar  
 25  10  30  1   
 26  11  12  1   
 27  11  23  ar  
 28  12  13  1   
 29  12  42  1   
 30  12  43  1   
 31  13  14  1   
 32  13  22  1   
 33  13  44  1   
 34  14  15  1   
 35  14  45  1   
 36  14  46  1   
 37  15  16  1   
 38  15  47  1   
 39  15  48  1   
 40  16  17  am  
 41  16  21  1   
 42  17  18  2   
 43  17  19  1   
 44  19  20  1   
 45  19  49  1   
 46  19  50  1   
 47  21  22  1   
 48  21  51  1   
 49  21  52  1   
 50  22  53  1   
 51  22  54  1   
 52  23  31  1   
 53  24  25  1   
 54  25  26  1   
 55  25  55  1   
 56  25  56  1   
 57  26  27  3   
@<TRIPOS>SUBSTRUCTURE
  1 LIG  23 GROUP 4 **** **** 0
@<TRIPOS>PROPERTY_DATA
index	|	ligand364
Name	|	MAK-UNK-af8-20
ChemPlp	|	-102.798
MM-GBSA Nwat=0	|	-25.0267
STDEV0	|	3.5378
MM-GBSA Nwat=30	|	-62.5486
STDEV30	|	5.9904
MM-GBSA Nwat=60	|	-70.7046
STDEV60	|	6.0473
ST.DEV < 10%	|	Y
RMSD LIG < 2	|	N
DIST < 5	|	N
DIST < 3.5	|	N

# MOE 2019.01 (io_trps.svl 2018.10)

@<TRIPOS>MOLECULE
ligand098
57 59 1 0 0 
SMALL
NO_CHARGES


@<TRIPOS>ATOM
  1 C1       8.3780    -6.3670    23.3560 C.3   1 LIG   0.0000 
  2 H2       8.7440    -7.2850    23.5120 H     1 LIG   0.0000 
  3 H3       9.1210    -5.6990    23.4040 H     1 LIG   0.0000 
  4 H4       7.6960    -6.1570    24.0560 H     1 LIG   0.0000 
  5 O5       7.7720    -6.3100    22.0730 O.3   1 LIG   0.0000 
  6 C6       7.2070    -5.1620    21.6440 C.ar  1 LIG   0.0000 
  7 C7       6.3940    -5.1250    20.5160 C.ar  1 LIG   0.0000 
  8 H8       6.2200    -5.9660    20.0040 H     1 LIG   0.0000 
  9 N9       5.8420    -3.9740    20.1060 N.ar  1 LIG   0.0000 
 10 C10      6.0510    -2.8230    20.7640 C.ar  1 LIG   0.0000 
 11 C11      5.4120    -1.5330    20.2760 C.3   1 LIG   0.0000 
 12 H12      4.4210    -1.6510    20.2230 H     1 LIG   0.0000 
 13 H13      5.6260    -0.7930    20.9150 H     1 LIG   0.0000 
 14 N14      5.9380    -1.1980    18.9450 N.am  1 LIG   0.0000 
 15 H15      6.1760    -1.9280    18.3030 H     1 LIG   0.0000 
 16 C16      6.1030     0.1130    18.5840 C.2   1 LIG   0.0000 
 17 O17      6.5330     0.3860    17.4970 O.2   1 LIG   0.0000 
 18 N18      5.7710     1.1340    19.4820 N.am  1 LIG   0.0000 
 19 C19      4.4340     1.7440    19.4130 C.3   1 LIG   0.0000 
 20 H20      3.7900     1.0800    19.0340 H     1 LIG   0.0000 
 21 H21      4.4720     2.5480    18.8190 H     1 LIG   0.0000 
 22 C22      3.9570     2.1680    20.7940 C.3   1 LIG   0.0000 
 23 H23      3.1650     2.7700    20.6930 H     1 LIG   0.0000 
 24 H24      3.6940     1.3540    21.3110 H     1 LIG   0.0000 
 25 O25      4.9750     2.8590    21.5060 O.3   1 LIG   0.0000 
 26 C26      6.0760     2.0000    21.7710 C.3   1 LIG   0.0000 
 27 H27      5.7470     1.1930    22.2610 H     1 LIG   0.0000 
 28 H28      6.7390     2.4870    22.3390 H     1 LIG   0.0000 
 29 C29      6.7590     1.5540    20.4870 C.3   1 LIG   0.0000 
 30 H30      7.2950     2.3150    20.1210 H     1 LIG   0.0000 
 31 H31      7.3660     0.7860    20.6900 H     1 LIG   0.0000 
 32 C32      6.8560    -2.8000    21.8990 C.ar  1 LIG   0.0000 
 33 C33      7.1170    -1.5180    22.6720 C.3   1 LIG   0.0000 
 34 H34      6.9870    -0.7320    22.0670 H     1 LIG   0.0000 
 35 H35      6.4800    -1.4560    23.4400 H     1 LIG   0.0000 
 36 N36      8.4960    -1.5230    23.1780 N.3   1 LIG   0.0000 
 37 C37      9.3650    -1.1460    22.0520 C.3   1 LIG   0.0000 
 38 H38      9.0860    -0.2480    21.7130 H     1 LIG   0.0000 
 39 H39      9.2650    -1.8240    21.3240 H     1 LIG   0.0000 
 40 C40     10.8270    -1.0820    22.4700 C.3   1 LIG   0.0000 
 41 H41     11.1760    -2.0140    22.5740 H     1 LIG   0.0000 
 42 H42     11.3480    -0.6090    21.7590 H     1 LIG   0.0000 
 43 N43     10.9930    -0.3640    23.7430 N.am  1 LIG   0.0000 
 44 C44     12.1640     0.3730    23.9610 C.2   1 LIG   0.0000 
 45 O45     12.3160     0.9650    24.9940 O.2   1 LIG   0.0000 
 46 C46     13.2410     0.4220    22.8900 C.3   1 LIG   0.0000 
 47 H47     12.9280     0.9900    22.1290 H     1 LIG   0.0000 
 48 H48     14.0770     0.8120    23.2760 H     1 LIG   0.0000 
 49 CL49    13.5710    -1.2260    22.3040 Cl    1 LIG   0.0000 
 50 C50      9.9720    -0.3790    24.8030 C.3   1 LIG   0.0000 
 51 H51     10.0410     0.4650    25.3350 H     1 LIG   0.0000 
 52 H52     10.1340    -1.1640    25.4000 H     1 LIG   0.0000 
 53 C53      8.5720    -0.4820    24.2150 C.3   1 LIG   0.0000 
 54 H54      7.9280    -0.7060    24.9480 H     1 LIG   0.0000 
 55 H55      8.3240     0.3980    23.8110 H     1 LIG   0.0000 
 56 C56      7.4390    -3.9820    22.3430 C.ar  1 LIG   0.0000 
 57 H57      8.0200    -3.9840    23.1570 H     1 LIG   0.0000 
@<TRIPOS>BOND
  1   1   2  1   
  2   1   3  1   
  3   1   4  1   
  4   1   5  1   
  5   5   6  1   
  6   6   7  ar  
  7   6  56  ar  
  8   7   8  1   
  9   7   9  ar  
 10   9  10  ar  
 11  10  11  1   
 12  10  32  ar  
 13  11  12  1   
 14  11  13  1   
 15  11  14  1   
 16  14  15  1   
 17  14  16  am  
 18  16  17  2   
 19  16  18  am  
 20  18  19  1   
 21  18  29  1   
 22  19  20  1   
 23  19  21  1   
 24  19  22  1   
 25  22  23  1   
 26  22  24  1   
 27  22  25  1   
 28  25  26  1   
 29  26  27  1   
 30  26  28  1   
 31  26  29  1   
 32  29  30  1   
 33  29  31  1   
 34  32  33  1   
 35  32  56  ar  
 36  33  34  1   
 37  33  35  1   
 38  33  36  1   
 39  36  37  1   
 40  36  53  1   
 41  37  38  1   
 42  37  39  1   
 43  37  40  1   
 44  40  41  1   
 45  40  42  1   
 46  40  43  1   
 47  43  44  am  
 48  43  50  1   
 49  44  45  2   
 50  44  46  1   
 51  46  47  1   
 52  46  48  1   
 53  46  49  1   
 54  50  51  1   
 55  50  52  1   
 56  50  53  1   
 57  53  54  1   
 58  53  55  1   
 59  56  57  1   
@<TRIPOS>SUBSTRUCTURE
  1 LIG  33 GROUP 4 **** **** 0
@<TRIPOS>PROPERTY_DATA
index	|	ligand098
Name	|	DAR-DIA-fb2-18
ChemPlp	|	-94.8561
MM-GBSA Nwat=0	|	-29.6376
STDEV0	|	2.9188
MM-GBSA Nwat=30	|	-60.1724
STDEV30	|	5.1107
MM-GBSA Nwat=60	|	-67.0178
STDEV60	|	5.5713
ST.DEV < 10%	|	Y
RMSD LIG < 2	|	N
DIST < 5	|	N
DIST < 3.5	|	N

# MOE 2019.01 (io_trps.svl 2018.10)

@<TRIPOS>MOLECULE
ligand177
52 54 1 0 0 
SMALL
USER_CHARGES


@<TRIPOS>ATOM
  1 C1      12.7830     5.1920    21.2600 C.3   1 LIG   0.0000 
  2 C5      13.5090     6.0040    22.3200 C.2   1 LIG   0.0000 
  3 O6      14.1960     6.9340    21.9970 O.2   1 LIG   0.0000 
  4 N7      13.3800     5.6750    23.6440 N.am  1 LIG   0.0000 
  5 C9      12.5390     4.5360    24.0390 C.3   1 LIG   0.0000 
  6 C12     13.1520     3.2480    23.5160 C.3   1 LIG   0.0000 
  7 C15     12.2500     2.0770    23.8700 C.2   1 LIG   0.0000 
  8 C16     11.1650     2.1400    24.6960 C.2   1 LIG   0.0000 
  9 N18     10.6250     0.8890    24.7620 N.pl3 1 LIG   0.0000 
 10 C20     11.3680     0.0510    23.9790 C.ar  1 LIG   0.0000 
 11 C21     11.2060    -1.3080    23.7340 C.ar  1 LIG   0.0000 
 12 C22     10.0640    -2.0770    24.3780 C.3   1 LIG   0.0000 
 13 N25      9.5010    -3.0240    23.4040 N.4   1 LIG   1.0000 
 14 C26      8.5740    -3.8990    24.1410 C.3   1 LIG   0.0000 
 15 C29      7.8880    -4.9000    23.2240 C.3   1 LIG   0.0000 
 16 N32      7.3960    -4.2570    21.9950 N.am  1 LIG   0.0000 
 17 C33      6.2290    -4.7540    21.4030 C.2   1 LIG   0.0000 
 18 O34      5.8040    -4.2510    20.4000 O.2   1 LIG   0.0000 
 19 C35      5.5010    -5.9320    22.0300 C.3   1 LIG   0.0000 
 20 CL38     4.2940    -5.3320    23.1930 Cl    1 LIG   0.0000 
 21 C39      8.0750    -3.1080    21.3750 C.3   1 LIG   0.0000 
 22 C42      8.7560    -2.2290    22.4140 C.3   1 LIG   0.0000 
 23 C45     12.0840    -1.9860    22.8970 C.ar  1 LIG   0.0000 
 24 C47     13.1330    -1.2900    22.3040 C.ar  1 LIG   0.0000 
 25 C49     13.2770     0.0700    22.5620 C.ar  1 LIG   0.0000 
 26 C51     12.4000     0.7530    23.3980 C.ar  1 LIG   0.0000 
 27 H16     10.8270     2.9550    25.1660 H     1 LIG   0.0000 
 28 H18      9.8200     0.6280    25.2940 H     1 LIG   0.0000 
 29 H45     11.9640    -2.9640    22.7220 H     1 LIG   0.0000 
 30 H47     13.7750    -1.7610    21.7000 H     1 LIG   0.0000 
 31 H49     14.0310     0.5690    22.1350 H     1 LIG   0.0000 
 32 H11     12.2610     4.4610    21.7000 H     1 LIG   0.0000 
 33 H12     12.1600     5.7870    20.7530 H     1 LIG   0.0000 
 34 H13     13.4490     4.7920    20.6310 H     1 LIG   0.0000 
 35 H91     11.6230     4.6490    23.6550 H     1 LIG   0.0000 
 36 H92     12.4800     4.4960    25.0370 H     1 LIG   0.0000 
 37 H121    13.2500     3.3040    22.5220 H     1 LIG   0.0000 
 38 H122    14.0510     3.1130    23.9320 H     1 LIG   0.0000 
 39 H221    10.4060    -2.5800    25.1720 H     1 LIG   0.0000 
 40 H222     9.3530    -1.4370    24.6700 H     1 LIG   0.0000 
 41 H25     10.2240    -3.5570    22.9650 H     1 LIG   0.0000 
 42 H261     7.8770    -3.3340    24.5820 H     1 LIG   0.0000 
 43 H262     9.0880    -4.3990    24.8390 H     1 LIG   0.0000 
 44 H291     8.5410    -5.6160    22.9770 H     1 LIG   0.0000 
 45 H292     7.1140    -5.3080    23.7090 H     1 LIG   0.0000 
 46 H351     5.0420    -6.4590    21.3150 H     1 LIG   0.0000 
 47 H352     6.1590    -6.5160    22.5040 H     1 LIG   0.0000 
 48 H391     7.4000    -2.5610    20.8800 H     1 LIG   0.0000 
 49 H392     8.7650    -3.4460    20.7350 H     1 LIG   0.0000 
 50 H421     9.3920    -1.6130    21.9490 H     1 LIG   0.0000 
 51 H422     8.0580    -1.6920    22.8890 H     1 LIG   0.0000 
 52 H7      13.8580     6.2100    24.3400 H     1 LIG   0.0000 
@<TRIPOS>BOND
  1   1   2  1   
  2   1  32  1   
  3   1  33  1   
  4   1  34  1   
  5   2   3  2   
  6   2   4  am  
  7   4   5  1   
  8   4  52  1   
  9   5   6  1   
 10   5  35  1   
 11   5  36  1   
 12   6   7  1   
 13   6  37  1   
 14   6  38  1   
 15   7   8  2   
 16   7  26  1   
 17   8   9  1   
 18   8  27  1   
 19   9  10  1   
 20   9  28  1   
 21  10  11  ar  
 22  10  26  ar  
 23  11  12  1   
 24  11  23  ar  
 25  12  13  1   
 26  12  39  1   
 27  12  40  1   
 28  13  14  1   
 29  13  22  1   
 30  13  41  1   
 31  14  15  1   
 32  14  42  1   
 33  14  43  1   
 34  15  16  1   
 35  15  44  1   
 36  15  45  1   
 37  16  17  am  
 38  16  21  1   
 39  17  18  2   
 40  17  19  1   
 41  19  20  1   
 42  19  46  1   
 43  19  47  1   
 44  21  22  1   
 45  21  48  1   
 46  21  49  1   
 47  22  50  1   
 48  22  51  1   
 49  23  24  ar  
 50  23  29  1   
 51  24  25  ar  
 52  24  30  1   
 53  25  26  ar  
 54  25  31  1   
@<TRIPOS>SUBSTRUCTURE
  1 LIG  11 GROUP 4 **** **** 0
@<TRIPOS>PROPERTY_DATA
index	|	ligand177
Name	|	DUN-NEW-f8c-24
ChemPlp	|	-97.0912
MM-GBSA Nwat=0	|	-22.6729
STDEV0	|	3.0832
MM-GBSA Nwat=30	|	-59.6936
STDEV30	|	5.1948
MM-GBSA Nwat=60	|	-68.0344
STDEV60	|	5.227
ST.DEV < 10%	|	Y
RMSD LIG < 2	|	N
DIST < 5	|	N
DIST < 3.5	|	N

# MOE 2019.01 (io_trps.svl 2018.10)

@<TRIPOS>MOLECULE
ligand303
72 77 1 0 0 
SMALL
USER_CHARGES


@<TRIPOS>ATOM
  1 O1       5.8010    -4.1220    19.7720 O.2   1 LIG   0.0000 
  2 C2       6.3030    -4.5350    20.7810 C.2   1 LIG   0.0000 
  3 C3       6.1330    -5.9940    21.1720 C.3   1 LIG   0.0000 
  4 H4       5.4270    -6.4120    20.6010 H     1 LIG   0.0000 
  5 H5       6.9980    -6.4770    21.0390 H     1 LIG   0.0000 
  6 CL6      5.6520    -6.0980    22.8830 Cl    1 LIG   0.0000 
  7 N7       7.0440    -3.6740    21.5970 N.am  1 LIG   0.0000 
  8 C8       7.1900    -2.2670    21.1920 C.3   1 LIG   0.0000 
  9 H9       6.4030    -1.7390    21.5100 H     1 LIG   0.0000 
 10 H10      7.2510    -2.2060    20.1950 H     1 LIG   0.0000 
 11 C11      8.4640    -1.7270    21.8210 C.ar  1 LIG   0.0000 
 12 C12      9.2520    -0.8280    21.1100 C.ar  1 LIG   0.0000 
 13 H13      8.9740    -0.5250    20.1990 H     1 LIG   0.0000 
 14 C14     10.4290    -0.3560    21.6770 C.ar  1 LIG   0.0000 
 15 H15     11.0000     0.2890    21.1690 H     1 LIG   0.0000 
 16 C16     10.8180    -0.7720    22.9450 C.ar  1 LIG   0.0000 
 17 N17     12.0620    -0.3100    23.5740 N.4   1 LIG   1.0000 
 18 H18     12.7850    -0.9820    23.4180 H     1 LIG   0.0000 
 19 H19     11.9160    -0.2000    24.5580 H     1 LIG   0.0000 
 20 C20     12.4570     0.9800    22.9900 C.3   1 LIG   0.0000 
 21 H21     12.3130     0.9560    22.0010 H     1 LIG   0.0000 
 22 H22     13.4230     1.1510    23.1820 H     1 LIG   0.0000 
 23 C23     11.6130     2.0950    23.6000 C.2   1 LIG   0.0000 
 24 C24     12.1160     3.3440    24.0360 C.2   1 LIG   0.0000 
 25 H25     13.0660     3.6530    23.9990 H     1 LIG   0.0000 
 26 C26     11.0480     4.0430    24.5180 C.2   1 LIG   0.0000 
 27 C27     11.1120     5.3800    25.0770 C.ar  1 LIG   0.0000 
 28 C28     10.2600     5.7400    26.1150 C.ar  1 LIG   0.0000 
 29 H29      9.6040     5.0770    26.4760 H     1 LIG   0.0000 
 30 C30     10.3210     7.0210    26.6520 C.ar  1 LIG   0.0000 
 31 H31      9.7090     7.2800    27.4000 H     1 LIG   0.0000 
 32 C32     11.2340     7.9440    26.1490 C.ar  1 LIG   0.0000 
 33 H33     11.2770     8.8650    26.5340 H     1 LIG   0.0000 
 34 C34     12.0850     7.5830    25.1100 C.ar  1 LIG   0.0000 
 35 H35     12.7420     8.2460    24.7490 H     1 LIG   0.0000 
 36 C36     12.0240     6.3020    24.5740 C.ar  1 LIG   0.0000 
 37 F37     12.8390     5.9580    23.5800 F     1 LIG   0.0000 
 38 N38      9.9320     3.2660    24.3730 N.pl3 1 LIG   0.0000 
 39 S39      8.3670     3.7200    24.8270 S.o2  1 LIG   0.0000 
 40 O40      7.4280     2.7310    24.3660 O.2   1 LIG   0.0000 
 41 O41      8.2940     3.8200    26.2620 O.2   1 LIG   0.0000 
 42 C42      7.9820     5.2620    24.1180 C.ar  1 LIG   0.0000 
 43 C43      8.0860     5.4320    22.7410 C.ar  1 LIG   0.0000 
 44 H44      8.3810     4.6720    22.1620 H     1 LIG   0.0000 
 45 C45      7.7770     6.6640    22.1750 C.ar  1 LIG   0.0000 
 46 H46      7.8470     6.8000    21.1870 H     1 LIG   0.0000 
 47 C47      7.3690     7.7040    23.0050 C.ar  1 LIG   0.0000 
 48 H48      7.1440     8.5940    22.6100 H     1 LIG   0.0000 
 49 N49      7.2750     7.5200    24.3300 N.ar  1 LIG   0.0000 
 50 C50      7.5680     6.3390    24.8940 C.ar  1 LIG   0.0000 
 51 H51      7.4890     6.2310    25.8860 H     1 LIG   0.0000 
 52 C52     10.2580     2.0640    23.8140 C.2   1 LIG   0.0000 
 53 H53      9.6340     1.3110    23.6030 H     1 LIG   0.0000 
 54 C54     10.0170    -1.6580    23.6460 C.ar  1 LIG   0.0000 
 55 H55     10.2910    -1.9550    24.5600 H     1 LIG   0.0000 
 56 C56      8.8350    -2.1390    23.0910 C.ar  1 LIG   0.0000 
 57 C57      7.9440    -3.1160    23.8410 C.3   1 LIG   0.0000 
 58 C58      8.6160    -3.7940    25.0240 C.ar  1 LIG   0.0000 
 59 C59      8.1820    -3.5160    26.3160 C.ar  1 LIG   0.0000 
 60 H60      7.4310    -2.8730    26.4670 H     1 LIG   0.0000 
 61 C61      8.8000    -4.1380    27.3960 C.ar  1 LIG   0.0000 
 62 H62      8.4940    -3.9420    28.3270 H     1 LIG   0.0000 
 63 C63      9.8430    -5.0320    27.1790 C.ar  1 LIG   0.0000 
 64 H64     10.2870    -5.4790    27.9550 H     1 LIG   0.0000 
 65 C65     10.2680    -5.3020    25.8840 C.ar  1 LIG   0.0000 
 66 H66     11.0190    -5.9460    25.7340 H     1 LIG   0.0000 
 67 C67      9.6590    -4.6860    24.7960 C.ar  1 LIG   0.0000 
 68 H68      9.9660    -4.8820    23.8650 H     1 LIG   0.0000 
 69 C69      7.6500    -4.2080    22.8280 C.3   1 LIG   0.0000 
 70 H70      8.5070    -4.6680    22.5920 H     1 LIG   0.0000 
 71 H71      7.0200    -4.8670    23.2380 H     1 LIG   0.0000 
 72 H72      7.0980    -2.6680    24.1280 H     1 LIG   0.0000 
@<TRIPOS>BOND
  1   1   2  2   
  2   2   3  1   
  3   2   7  am  
  4   3   4  1   
  5   3   5  1   
  6   3   6  1   
  7   7   8  1   
  8   7  69  1   
  9   8   9  1   
 10   8  10  1   
 11   8  11  1   
 12  11  12  ar  
 13  11  56  ar  
 14  12  13  1   
 15  12  14  ar  
 16  14  15  1   
 17  14  16  ar  
 18  16  17  1   
 19  16  54  ar  
 20  17  18  1   
 21  17  19  1   
 22  17  20  1   
 23  20  21  1   
 24  20  22  1   
 25  20  23  1   
 26  23  24  1   
 27  23  52  2   
 28  24  25  1   
 29  24  26  2   
 30  26  27  1   
 31  26  38  1   
 32  27  28  ar  
 33  27  36  ar  
 34  28  29  1   
 35  28  30  ar  
 36  30  31  1   
 37  30  32  ar  
 38  32  33  1   
 39  32  34  ar  
 40  34  35  1   
 41  34  36  ar  
 42  36  37  1   
 43  38  39  1   
 44  38  52  1   
 45  39  40  2   
 46  39  41  2   
 47  39  42  1   
 48  42  43  ar  
 49  42  50  ar  
 50  43  44  1   
 51  43  45  ar  
 52  45  46  1   
 53  45  47  ar  
 54  47  48  1   
 55  47  49  ar  
 56  49  50  ar  
 57  50  51  1   
 58  52  53  1   
 59  54  55  1   
 60  54  56  ar  
 61  56  57  1   
 62  57  58  1   
 63  57  69  1   
 64  57  72  1   
 65  58  59  ar  
 66  58  67  ar  
 67  59  60  1   
 68  59  61  ar  
 69  61  62  1   
 70  61  63  ar  
 71  63  64  1   
 72  63  65  ar  
 73  65  66  1   
 74  65  67  ar  
 75  67  68  1   
 76  69  70  1   
 77  69  71  1   
@<TRIPOS>SUBSTRUCTURE
  1 LIG  52 GROUP 4 **** **** 0
@<TRIPOS>PROPERTY_DATA
index	|	ligand303
Name	|	MAK-UNK-702-10
ChemPlp	|	-99.6673
MM-GBSA Nwat=0	|	3.2234
STDEV0	|	3.7598
MM-GBSA Nwat=30	|	127.29
STDEV30	|	11.8472
MM-GBSA Nwat=60	|	107.565
STDEV60	|	14.674
ST.DEV < 10%	|	Y
RMSD LIG < 2	|	N
DIST < 5	|	N
DIST < 3.5	|	N

# MOE 2019.01 (io_trps.svl 2018.10)

@<TRIPOS>MOLECULE
ligand324
73 76 1 0 0 
SMALL
NO_CHARGES


@<TRIPOS>ATOM
  1 C1       5.2950    -3.4530    22.5110 C.3   1 LIG   0.0000 
  2 C5       5.0920    -4.9580    22.5680 C.3   1 LIG   0.0000 
  3 C7       5.8000    -5.6100    21.3920 C.3   1 LIG   0.0000 
  4 N11      5.6490    -5.4800    23.8250 N.am  1 LIG   0.0000 
  5 C12      7.0840    -5.7830    23.9240 C.3   1 LIG   0.0000 
  6 N15      7.8520    -4.5300    23.8980 N.3   1 LIG   0.0000 
  7 C18      8.2020    -4.1980    22.5090 C.3   1 LIG   0.0000 
  8 C21      8.6810    -2.7520    22.4370 C.2   1 LIG   0.0000 
  9 C22      9.9220    -2.2860    22.9330 C.2   1 LIG   0.0000 
 10 C24      9.9600    -0.9460    22.6800 C.2   1 LIG   0.0000 
 11 C25     11.0560    -0.0630    23.0310 C.ar  1 LIG   0.0000 
 12 C26     10.7920     1.2060    23.5330 C.ar  1 LIG   0.0000 
 13 C28     11.8420     2.0530    23.8700 C.ar  1 LIG   0.0000 
 14 C30     13.1570     1.6310    23.7040 C.ar  1 LIG   0.0000 
 15 C32     13.4220     0.3610    23.2020 C.ar  1 LIG   0.0000 
 16 C34     12.3710    -0.4860    22.8640 C.ar  1 LIG   0.0000 
 17 F35     12.6240    -1.7000    22.3840 F     1 LIG   0.0000 
 18 N36      8.8000    -0.6010    22.0420 N.pl3 1 LIG   0.0000 
 19 S37      8.4040     0.9590    21.5240 S.o2  1 LIG   0.0000 
 20 O38      7.8020     1.6870    22.6110 O.2   1 LIG   0.0000 
 21 O39      9.5980     1.6400    21.0940 O.2   1 LIG   0.0000 
 22 C40      7.2810     0.8620    20.1990 C.ar  1 LIG   0.0000 
 23 C41      6.0280     1.4550    20.3120 C.ar  1 LIG   0.0000 
 24 C43      5.1310     1.3780    19.2520 C.ar  1 LIG   0.0000 
 25 C45      5.5120     0.7040    18.0960 C.ar  1 LIG   0.0000 
 26 N47      6.7250     0.1390    18.0050 N.ar  1 LIG   0.0000 
 27 C48      7.6040     0.2030    19.0170 C.ar  1 LIG   0.0000 
 28 C50      7.9990    -1.6970    21.8860 C.2   1 LIG   0.0000 
 29 C52      4.8300    -5.6840    24.9040 C.2   1 LIG   0.0000 
 30 O53      3.6580    -5.4360    24.8240 O.2   1 LIG   0.0000 
 31 C54      5.4050    -6.2230    26.2040 C.3   1 LIG   0.0000 
 32 C56      6.2180    -5.1090    26.8500 C.3   1 LIG   0.0000 
 33 C59      6.7770    -5.5150    28.2060 C.3   1 LIG   0.0000 
 34 N62      5.7640    -6.1810    29.0420 N.am  1 LIG   0.0000 
 35 C63      5.8330    -6.0080    30.4280 C.2   1 LIG   0.0000 
 36 O64      6.7010    -5.3310    30.9060 O.2   1 LIG   0.0000 
 37 C65      4.8080    -6.6770    31.3290 C.3   1 LIG   0.0000 
 38 CL68     5.5790    -7.1350    32.8660 Cl    1 LIG   0.0000 
 39 C69      4.6820    -7.0150    28.4940 C.3   1 LIG   0.0000 
 40 C72      4.2310    -6.5350    27.1220 C.3   1 LIG   0.0000 
 41 H22     10.6310    -2.8310    23.3810 H     1 LIG   0.0000 
 42 H50      7.0970    -1.7240    21.4570 H     1 LIG   0.0000 
 43 H26      9.8460     1.5100    23.6510 H     1 LIG   0.0000 
 44 H28     11.6520     2.9660    24.2330 H     1 LIG   0.0000 
 45 H30     13.9120     2.2400    23.9460 H     1 LIG   0.0000 
 46 H32     14.3670     0.0570    23.0830 H     1 LIG   0.0000 
 47 H41      5.7730     1.9340    21.1520 H     1 LIG   0.0000 
 48 H43      4.2270     1.7990    19.3200 H     1 LIG   0.0000 
 49 H45      4.8770     0.6410    17.3260 H     1 LIG   0.0000 
 50 H48      8.5010    -0.2270    18.9200 H     1 LIG   0.0000 
 51 H11      4.9160    -3.0980    21.6560 H     1 LIG   0.0000 
 52 H12      4.8290    -3.0240    23.2850 H     1 LIG   0.0000 
 53 H13      6.2720    -3.2470    22.5540 H     1 LIG   0.0000 
 54 H5       4.1150    -5.1650    22.5250 H     1 LIG   0.0000 
 55 H71      5.4220    -5.2560    20.5370 H     1 LIG   0.0000 
 56 H72      6.7780    -5.4040    21.4350 H     1 LIG   0.0000 
 57 H73      5.6670    -6.6010    21.4300 H     1 LIG   0.0000 
 58 H121     7.3570    -6.3580    23.1520 H     1 LIG   0.0000 
 59 H122     7.2640    -6.2670    24.7800 H     1 LIG   0.0000 
 60 H181     7.3970    -4.3120    21.9260 H     1 LIG   0.0000 
 61 H182     8.9300    -4.8070    22.1940 H     1 LIG   0.0000 
 62 H54      5.9660    -7.0350    26.0440 H     1 LIG   0.0000 
 63 H561     5.6290    -4.3100    26.9700 H     1 LIG   0.0000 
 64 H562     6.9790    -4.8740    26.2450 H     1 LIG   0.0000 
 65 H591     7.5430    -6.1420    28.0660 H     1 LIG   0.0000 
 66 H592     7.0990    -4.6960    28.6810 H     1 LIG   0.0000 
 67 H651     4.0570    -6.0420    31.5080 H     1 LIG   0.0000 
 68 H652     4.4520    -7.4960    30.8780 H     1 LIG   0.0000 
 69 H691     3.9020    -6.9830    29.1200 H     1 LIG   0.0000 
 70 H692     5.0090    -7.9570    28.4160 H     1 LIG   0.0000 
 71 H721     3.6740    -7.2490    26.6990 H     1 LIG   0.0000 
 72 H722     3.6830    -5.7060    27.2350 H     1 LIG   0.0000 
 73 H15      8.6880    -4.6410    24.4350 H     1 LIG   0.0000 
@<TRIPOS>BOND
  1   1   2  1   
  2   1  51  1   
  3   1  52  1   
  4   1  53  1   
  5   2   3  1   
  6   2   4  1   
  7   2  54  1   
  8   3  55  1   
  9   3  56  1   
 10   3  57  1   
 11   4   5  1   
 12   4  29  am  
 13   5   6  1   
 14   5  58  1   
 15   5  59  1   
 16   6   7  1   
 17   6  73  1   
 18   7   8  1   
 19   7  60  1   
 20   7  61  1   
 21   8   9  1   
 22   8  28  2   
 23   9  10  2   
 24   9  41  1   
 25  10  11  1   
 26  10  18  1   
 27  11  12  ar  
 28  11  16  ar  
 29  12  13  ar  
 30  12  43  1   
 31  13  14  ar  
 32  13  44  1   
 33  14  15  ar  
 34  14  45  1   
 35  15  16  ar  
 36  15  46  1   
 37  16  17  1   
 38  18  19  1   
 39  18  28  1   
 40  19  20  2   
 41  19  21  2   
 42  19  22  1   
 43  22  23  ar  
 44  22  27  ar  
 45  23  24  ar  
 46  23  47  1   
 47  24  25  ar  
 48  24  48  1   
 49  25  26  ar  
 50  25  49  1   
 51  26  27  ar  
 52  27  50  1   
 53  28  42  1   
 54  29  30  2   
 55  29  31  1   
 56  31  32  1   
 57  31  40  1   
 58  31  62  1   
 59  32  33  1   
 60  32  63  1   
 61  32  64  1   
 62  33  34  1   
 63  33  65  1   
 64  33  66  1   
 65  34  35  am  
 66  34  39  1   
 67  35  36  2   
 68  35  37  1   
 69  37  38  1   
 70  37  67  1   
 71  37  68  1   
 72  39  40  1   
 73  39  69  1   
 74  39  70  1   
 75  40  71  1   
 76  40  72  1   
@<TRIPOS>SUBSTRUCTURE
  1 LIG   8 GROUP 4 **** **** 0
@<TRIPOS>PROPERTY_DATA
index	|	ligand324
Name	|	MAK-UNK-8fd-16
ChemPlp	|	-97.5074
MM-GBSA Nwat=0	|	63.933
STDEV0	|	7.6088
MM-GBSA Nwat=30	|	140.475
STDEV30	|	13.5351
MM-GBSA Nwat=60	|	111.951
STDEV60	|	14.4792
ST.DEV < 10%	|	Y
RMSD LIG < 2	|	N
DIST < 5	|	N
DIST < 3.5	|	N

# MOE 2019.01 (io_trps.svl 2018.10)

@<TRIPOS>MOLECULE
ligand304
72 77 1 0 0 
SMALL
USER_CHARGES


@<TRIPOS>ATOM
  1 O1       5.7560    -7.7240    28.9330 O.2   1 LIG   0.0000 
  2 C2       5.7160    -6.5450    28.7120 C.2   1 LIG   0.0000 
  3 C3       6.5770    -5.5910    29.5240 C.3   1 LIG   0.0000 
  4 H4       7.5350    -5.7000    29.2610 H     1 LIG   0.0000 
  5 H5       6.2880    -4.6500    29.3490 H     1 LIG   0.0000 
  6 CL6      6.3930    -5.9550    31.2570 Cl    1 LIG   0.0000 
  7 N7       4.8780    -6.0490    27.7070 N.am  1 LIG   0.0000 
  8 C8       4.0200    -6.9160    26.8850 C.3   1 LIG   0.0000 
  9 H9       3.0660    -6.8440    27.1780 H     1 LIG   0.0000 
 10 H10      4.3190    -7.8680    26.9500 H     1 LIG   0.0000 
 11 C11      4.1810    -6.4020    25.4600 C.ar  1 LIG   0.0000 
 12 C12      3.5720    -7.1710    24.4760 C.ar  1 LIG   0.0000 
 13 H13      3.0730    -7.9970    24.7360 H     1 LIG   0.0000 
 14 C14      3.6480    -6.8090    23.1360 C.ar  1 LIG   0.0000 
 15 H15      3.2050    -7.3700    22.4360 H     1 LIG   0.0000 
 16 C16      4.3440    -5.6600    22.7800 C.ar  1 LIG   0.0000 
 17 H17      4.4060    -5.3960    21.8170 H     1 LIG   0.0000 
 18 C18      4.9560    -4.8750    23.7500 C.ar  1 LIG   0.0000 
 19 N19      5.6710    -3.6680    23.3080 N.4   1 LIG   1.0000 
 20 H20      5.7070    -3.0090    24.0590 H     1 LIG   0.0000 
 21 H21      5.1900    -3.2630    22.5310 H     1 LIG   0.0000 
 22 C22      7.0380    -4.0280    22.9060 C.3   1 LIG   0.0000 
 23 H23      7.0070    -4.5640    22.0620 H     1 LIG   0.0000 
 24 H24      7.4670    -4.5690    23.6290 H     1 LIG   0.0000 
 25 C25      7.8500    -2.7580    22.6720 C.2   1 LIG   0.0000 
 26 C26      9.2200    -2.6020    22.9920 C.2   1 LIG   0.0000 
 27 H27      9.8210    -3.2900    23.4000 H     1 LIG   0.0000 
 28 C28      9.5580    -1.3310    22.6340 C.2   1 LIG   0.0000 
 29 C29     10.8740    -0.7420    22.7950 C.ar  1 LIG   0.0000 
 30 C30     11.9950    -1.4020    22.3040 C.ar  1 LIG   0.0000 
 31 H31     11.8940    -2.2830    21.8410 H     1 LIG   0.0000 
 32 C32     13.2570    -0.8380    22.4580 C.ar  1 LIG   0.0000 
 33 H33     14.0630    -1.3120    22.1040 H     1 LIG   0.0000 
 34 C34     13.3970     0.3870    23.1040 C.ar  1 LIG   0.0000 
 35 H35     14.3040     0.7930    23.2150 H     1 LIG   0.0000 
 36 C36     12.2760     1.0470    23.5940 C.ar  1 LIG   0.0000 
 37 H37     12.3770     1.9270    24.0580 H     1 LIG   0.0000 
 38 C38     11.0140     0.4820    23.4410 C.ar  1 LIG   0.0000 
 39 F39      9.9410     1.1140    23.9100 F     1 LIG   0.0000 
 40 N40      8.4500    -0.7300    22.1020 N.pl3 1 LIG   0.0000 
 41 S41      8.3930     0.8540    21.5130 S.o2  1 LIG   0.0000 
 42 O42      7.9320     1.7360    22.5530 O.2   1 LIG   0.0000 
 43 O43      9.7090     1.2570    21.0900 O.2   1 LIG   0.0000 
 44 C44      7.3000     0.9300    20.1610 C.ar  1 LIG   0.0000 
 45 C45      6.0690     1.5600    20.3050 C.ar  1 LIG   0.0000 
 46 H46      5.8120     1.9670    21.1810 H     1 LIG   0.0000 
 47 C47      5.1960     1.6210    19.2230 C.ar  1 LIG   0.0000 
 48 H48      4.3080     2.0710    19.3120 H     1 LIG   0.0000 
 49 C49      5.5800     1.0460    18.0150 C.ar  1 LIG   0.0000 
 50 H50      4.9620     1.0830    17.2300 H     1 LIG   0.0000 
 51 N51      6.7720     0.4430    17.8960 N.ar  1 LIG   0.0000 
 52 C52      7.6270     0.3750    18.9280 C.ar  1 LIG   0.0000 
 53 H53      8.5090    -0.0810    18.8090 H     1 LIG   0.0000 
 54 C54      7.3890    -1.5900    22.1190 C.2   1 LIG   0.0000 
 55 H55      6.4610    -1.4040    21.7950 H     1 LIG   0.0000 
 56 C56      4.8670    -5.2500    25.0870 C.ar  1 LIG   0.0000 
 57 C57      5.5400    -4.3620    26.1250 C.3   1 LIG   0.0000 
 58 C58      7.0280    -4.6340    26.2800 C.ar  1 LIG   0.0000 
 59 C59      7.7490    -3.9770    27.2710 C.ar  1 LIG   0.0000 
 60 H60      7.2920    -3.3280    27.8800 H     1 LIG   0.0000 
 61 C61      9.1100    -4.2280    27.4080 C.ar  1 LIG   0.0000 
 62 H62      9.6360    -3.7580    28.1180 H     1 LIG   0.0000 
 63 C63      9.7400    -5.1320    26.5590 C.ar  1 LIG   0.0000 
 64 H64     10.7180    -5.3130    26.6580 H     1 LIG   0.0000 
 65 C65      9.0100    -5.7830    25.5730 C.ar  1 LIG   0.0000 
 66 H66      9.4660    -6.4320    24.9650 H     1 LIG   0.0000 
 67 C67      7.6480    -5.5400    25.4250 C.ar  1 LIG   0.0000 
 68 H68      7.1230    -6.0100    24.7150 H     1 LIG   0.0000 
 69 C69      4.7620    -4.6120    27.4040 C.3   1 LIG   0.0000 
 70 H70      5.1470    -4.0710    28.1510 H     1 LIG   0.0000 
 71 H71      3.8010    -4.3650    27.2750 H     1 LIG   0.0000 
 72 H72      5.4160    -3.4070    25.8560 H     1 LIG   0.0000 
@<TRIPOS>BOND
  1   1   2  2   
  2   2   3  1   
  3   2   7  am  
  4   3   4  1   
  5   3   5  1   
  6   3   6  1   
  7   7   8  1   
  8   7  69  1   
  9   8   9  1   
 10   8  10  1   
 11   8  11  1   
 12  11  12  ar  
 13  11  56  ar  
 14  12  13  1   
 15  12  14  ar  
 16  14  15  1   
 17  14  16  ar  
 18  16  17  1   
 19  16  18  ar  
 20  18  19  1   
 21  18  56  ar  
 22  19  20  1   
 23  19  21  1   
 24  19  22  1   
 25  22  23  1   
 26  22  24  1   
 27  22  25  1   
 28  25  26  1   
 29  25  54  2   
 30  26  27  1   
 31  26  28  2   
 32  28  29  1   
 33  28  40  1   
 34  29  30  ar  
 35  29  38  ar  
 36  30  31  1   
 37  30  32  ar  
 38  32  33  1   
 39  32  34  ar  
 40  34  35  1   
 41  34  36  ar  
 42  36  37  1   
 43  36  38  ar  
 44  38  39  1   
 45  40  41  1   
 46  40  54  1   
 47  41  42  2   
 48  41  43  2   
 49  41  44  1   
 50  44  45  ar  
 51  44  52  ar  
 52  45  46  1   
 53  45  47  ar  
 54  47  48  1   
 55  47  49  ar  
 56  49  50  1   
 57  49  51  ar  
 58  51  52  ar  
 59  52  53  1   
 60  54  55  1   
 61  56  57  1   
 62  57  58  1   
 63  57  69  1   
 64  57  72  1   
 65  58  59  ar  
 66  58  67  ar  
 67  59  60  1   
 68  59  61  ar  
 69  61  62  1   
 70  61  63  ar  
 71  63  64  1   
 72  63  65  ar  
 73  65  66  1   
 74  65  67  ar  
 75  67  68  1   
 76  69  70  1   
 77  69  71  1   
@<TRIPOS>SUBSTRUCTURE
  1 LIG  25 GROUP 4 **** **** 0
@<TRIPOS>PROPERTY_DATA
index	|	ligand304
Name	|	MAK-UNK-702-11
ChemPlp	|	-98.7062
MM-GBSA Nwat=0	|	49.7768
STDEV0	|	8.4688
MM-GBSA Nwat=30	|	151.107
STDEV30	|	13.5315
MM-GBSA Nwat=60	|	124.909
STDEV60	|	14.2648
ST.DEV < 10%	|	Y
RMSD LIG < 2	|	N
DIST < 5	|	N
DIST < 3.5	|	N

# MOE 2019.01 (io_trps.svl 2018.10)

@<TRIPOS>MOLECULE
ligand494
60 63 1 0 0 
SMALL
NO_CHARGES


@<TRIPOS>ATOM
  1 O1       2.7800    -8.8650    24.7930 O.2   1 LIG   0.0000 
  2 C2       2.4080    -7.8440    24.2840 C.2   1 LIG   0.0000 
  3 C3       1.3220    -7.8750    23.2210 C.3   1 LIG   0.0000 
  4 H4       0.7150    -7.0900    23.3410 H     1 LIG   0.0000 
  5 H5       1.7420    -7.8370    22.3140 H     1 LIG   0.0000 
  6 CL6      0.3830    -9.3800    23.3760 Cl    1 LIG   0.0000 
  7 N7       2.9750    -6.6230    24.6700 N.am  1 LIG   0.0000 
  8 C8       2.5310    -5.3580    24.0590 C.3   1 LIG   0.0000 
  9 H9       1.6700    -5.0850    24.4870 H     1 LIG   0.0000 
 10 H10      2.3830    -5.5130    23.0820 H     1 LIG   0.0000 
 11 C11      3.5270    -4.2220    24.2190 C.3   1 LIG   0.0000 
 12 H12      4.3560    -4.4090    23.6910 H     1 LIG   0.0000 
 13 H13      3.1240    -3.3600    23.9130 H     1 LIG   0.0000 
 14 C14      3.8490    -4.1580    25.7010 C.ar  1 LIG   0.0000 
 15 C15      3.9020    -2.9030    26.2860 C.ar  1 LIG   0.0000 
 16 H16      3.7560    -2.0770    25.7430 H     1 LIG   0.0000 
 17 C17      4.1640    -2.8230    27.6500 C.ar  1 LIG   0.0000 
 18 H18      4.2020    -1.9280    28.0940 H     1 LIG   0.0000 
 19 C19      4.3760    -3.9740    28.4020 C.ar  1 LIG   0.0000 
 20 H20      4.5580    -3.9000    29.3830 H     1 LIG   0.0000 
 21 C21      4.3350    -5.2260    27.8000 C.ar  1 LIG   0.0000 
 22 C22      4.5810    -6.4490    28.6700 C.3   1 LIG   0.0000 
 23 H23      3.9200    -6.4640    29.4200 H     1 LIG   0.0000 
 24 H24      4.4780    -7.2770    28.1180 H     1 LIG   0.0000 
 25 S25      6.2590    -6.3810    29.3450 S.o2  1 LIG   0.0000 
 26 O26      6.4440    -7.4590    30.2810 O.2   1 LIG   0.0000 
 27 O27      6.4550    -5.1220    30.0170 O.2   1 LIG   0.0000 
 28 N28      7.3390    -6.5230    28.1320 N.am  1 LIG   0.0000 
 29 H29      7.7030    -7.4220    27.8900 H     1 LIG   0.0000 
 30 C30      7.7580    -5.3860    27.4310 C.2   1 LIG   0.0000 
 31 C31      8.6120    -5.3360    26.3710 C.2   1 LIG   0.0000 
 32 H32      9.0370    -6.1500    25.9760 H     1 LIG   0.0000 
 33 C33      8.8440    -4.0270    25.8770 C.2   1 LIG   0.0000 
 34 C34      9.7540    -3.7180    24.7090 C.3   1 LIG   0.0000 
 35 H35     10.1400    -2.8020    24.8200 H     1 LIG   0.0000 
 36 H36     10.4940    -4.3900    24.6750 H     1 LIG   0.0000 
 37 N37      8.9820    -3.7760    23.4560 N.3   1 LIG   0.0000 
 38 C38      8.1250    -2.5890    23.3150 C.3   1 LIG   0.0000 
 39 H39      8.6960    -1.7680    23.3270 H     1 LIG   0.0000 
 40 H40      7.4800    -2.5570    24.0790 H     1 LIG   0.0000 
 41 C41      7.3500    -2.6400    22.0090 C.3   1 LIG   0.0000 
 42 H42      6.7540    -1.8390    21.9470 H     1 LIG   0.0000 
 43 H43      7.9920    -2.6370    21.2420 H     1 LIG   0.0000 
 44 C44      6.5040    -3.9010    21.9500 C.3   1 LIG   0.0000 
 45 H45      5.8530    -3.8980    22.7100 H     1 LIG   0.0000 
 46 O46      5.7900    -3.9600    20.7200 O.3   1 LIG   0.0000 
 47 H47      6.4320    -4.1250    19.9710 H     1 LIG   0.0000 
 48 C48      7.4290    -5.1000    22.0880 C.3   1 LIG   0.0000 
 49 H49      8.0730    -5.1090    21.3220 H     1 LIG   0.0000 
 50 H50      6.8850    -5.9390    22.0760 H     1 LIG   0.0000 
 51 C51      8.2030    -5.0220    23.3940 C.3   1 LIG   0.0000 
 52 H52      7.5610    -5.0470    24.1590 H     1 LIG   0.0000 
 53 H53      8.8250    -5.8020    23.4550 H     1 LIG   0.0000 
 54 C54      8.1960    -3.0160    26.5170 C.2   1 LIG   0.0000 
 55 H55      8.2390    -2.0380    26.3100 H     1 LIG   0.0000 
 56 S56      7.2960    -3.7790    27.7460 S.3   1 LIG   0.0000 
 57 C57      4.0740    -5.3190    26.4350 C.ar  1 LIG   0.0000 
 58 C58      4.0210    -6.6500    25.7020 C.3   1 LIG   0.0000 
 59 H59      4.9060    -6.8240    25.2700 H     1 LIG   0.0000 
 60 H60      3.8200    -7.3790    26.3560 H     1 LIG   0.0000 
@<TRIPOS>BOND
  1   1   2  2   
  2   2   3  1   
  3   2   7  am  
  4   3   4  1   
  5   3   5  1   
  6   3   6  1   
  7   7   8  1   
  8   7  58  1   
  9   8   9  1   
 10   8  10  1   
 11   8  11  1   
 12  11  12  1   
 13  11  13  1   
 14  11  14  1   
 15  14  15  ar  
 16  14  57  ar  
 17  15  16  1   
 18  15  17  ar  
 19  17  18  1   
 20  17  19  ar  
 21  19  20  1   
 22  19  21  ar  
 23  21  22  1   
 24  21  57  ar  
 25  22  23  1   
 26  22  24  1   
 27  22  25  1   
 28  25  26  2   
 29  25  27  2   
 30  25  28  am  
 31  28  29  1   
 32  28  30  1   
 33  30  31  2   
 34  30  56  1   
 35  31  32  1   
 36  31  33  1   
 37  33  34  1   
 38  33  54  2   
 39  34  35  1   
 40  34  36  1   
 41  34  37  1   
 42  37  38  1   
 43  37  51  1   
 44  38  39  1   
 45  38  40  1   
 46  38  41  1   
 47  41  42  1   
 48  41  43  1   
 49  41  44  1   
 50  44  45  1   
 51  44  46  1   
 52  44  48  1   
 53  46  47  1   
 54  48  49  1   
 55  48  50  1   
 56  48  51  1   
 57  51  52  1   
 58  51  53  1   
 59  54  55  1   
 60  54  56  1   
 61  57  58  1   
 62  58  59  1   
 63  58  60  1   
@<TRIPOS>SUBSTRUCTURE
  1 LIG  57 GROUP 4 **** **** 0
@<TRIPOS>PROPERTY_DATA
index	|	ligand494
Name	|	NIY-UNK-626-6
ChemPlp	|	-100.112
MM-GBSA Nwat=0	|	12.45
STDEV0	|	6.6471
MM-GBSA Nwat=30	|	151.521
STDEV30	|	14.3215
MM-GBSA Nwat=60	|	101.221
STDEV60	|	15.2222
ST.DEV < 10%	|	Y
RMSD LIG < 2	|	N
DIST < 5	|	N
DIST < 3.5	|	N

# MOE 2019.01 (io_trps.svl 2018.10)

@<TRIPOS>MOLECULE
ligand289
52 52 1 0 0 
SMALL
USER_CHARGES


@<TRIPOS>ATOM
  1 C1       2.7930     2.2880    19.7460 C.3   1 LIG   0.0000 
  2 C5       4.2410     1.8500    19.6010 C.2   1 LIG   0.0000 
  3 O6       4.9830     1.9090    20.5430 O.2   1 LIG   0.0000 
  4 N7       4.7000     1.3890    18.3960 N.am  1 LIG   0.0000 
  5 C9       6.1010     0.9660    18.2550 C.3   1 LIG   0.0000 
  6 C12      6.2080    -0.5270    18.5210 C.3   1 LIG   0.0000 
  7 C15      5.5190    -0.8590    19.8340 C.3   1 LIG   0.0000 
  8 C18      6.2270    -2.0290    20.4970 C.2   1 LIG   0.0000 
  9 O19      5.6700    -3.0870    20.6010 O.2   1 LIG   0.0000 
 10 N20      7.5020    -1.8760    20.9750 N.am  1 LIG   0.0000 
 11 C22      8.1870    -3.0080    21.6160 C.3   1 LIG   0.0000 
 12 C25      9.3100    -2.4860    22.4980 C.2   1 LIG   0.0000 
 13 O26      9.2850    -2.6850    23.6810 O.2   1 LIG   0.0000 
 14 N27     10.3510    -1.7900    21.9420 N.am  1 LIG   0.0000 
 15 C29     11.4370    -1.2860    22.7950 C.3   1 LIG   0.0000 
 16 N32     11.2580     0.1560    23.0140 N.4   1 LIG   1.0000 
 17 C34     12.2980     0.5790    23.9670 C.3   1 LIG   0.0000 
 18 C37     12.2450     2.0740    24.2390 C.3   1 LIG   0.0000 
 19 N40     12.0990     2.8450    22.9940 N.am  1 LIG   0.0000 
 20 C41     12.6910     4.1110    22.9200 C.2   1 LIG   0.0000 
 21 O42     13.3010     4.5440    23.8580 O.2   1 LIG   0.0000 
 22 C43     12.5620     4.9360    21.6500 C.3   1 LIG   0.0000 
 23 CL46    13.7290     6.2800    21.6950 Cl    1 LIG   0.0000 
 24 C47     11.3670     2.3320    21.8250 C.3   1 LIG   0.0000 
 25 C50     11.4720     0.8180    21.7160 C.3   1 LIG   0.0000 
 26 H11      2.3210     2.1740    18.8720 H     1 LIG   0.0000 
 27 H12      2.3440     1.7280    20.4430 H     1 LIG   0.0000 
 28 H13      2.7610     3.2490    20.0200 H     1 LIG   0.0000 
 29 H91      6.6660     1.4630    18.9130 H     1 LIG   0.0000 
 30 H92      6.4170     1.1630    17.3270 H     1 LIG   0.0000 
 31 H121     7.1720    -0.7870    18.5750 H     1 LIG   0.0000 
 32 H122     5.7680    -1.0310    17.7770 H     1 LIG   0.0000 
 33 H151     5.5520    -0.0630    20.4390 H     1 LIG   0.0000 
 34 H152     4.5650    -1.1030    19.6580 H     1 LIG   0.0000 
 35 H221     8.5670    -3.6090    20.9130 H     1 LIG   0.0000 
 36 H222     7.5340    -3.5190    22.1750 H     1 LIG   0.0000 
 37 H291    11.4180    -1.7620    23.6740 H     1 LIG   0.0000 
 38 H292    12.3160    -1.4490    22.3460 H     1 LIG   0.0000 
 39 H32     10.3450     0.3540    23.3700 H     1 LIG   0.0000 
 40 H341    13.1950     0.3510    23.5880 H     1 LIG   0.0000 
 41 H342    12.1660     0.0890    24.8280 H     1 LIG   0.0000 
 42 H371    11.4650     2.2690    24.8350 H     1 LIG   0.0000 
 43 H372    13.0900     2.3520    24.6960 H     1 LIG   0.0000 
 44 H431    12.7490     4.3580    20.8560 H     1 LIG   0.0000 
 45 H432    11.6340     5.3030    21.5840 H     1 LIG   0.0000 
 46 H471    11.7480     2.7440    20.9980 H     1 LIG   0.0000 
 47 H472    10.4030     2.5850    21.9090 H     1 LIG   0.0000 
 48 H501    10.7820     0.4920    21.0700 H     1 LIG   0.0000 
 49 H502    12.3830     0.5810    21.3780 H     1 LIG   0.0000 
 50 H7       4.0820     1.3400    17.6110 H     1 LIG   0.0000 
 51 H20      7.9660    -0.9950    20.8880 H     1 LIG   0.0000 
 52 H27     10.3710    -1.6240    20.9560 H     1 LIG   0.0000 
@<TRIPOS>BOND
  1   1   2  1   
  2   1  26  1   
  3   1  27  1   
  4   1  28  1   
  5   2   3  2   
  6   2   4  am  
  7   4   5  1   
  8   4  50  1   
  9   5   6  1   
 10   5  29  1   
 11   5  30  1   
 12   6   7  1   
 13   6  31  1   
 14   6  32  1   
 15   7   8  1   
 16   7  33  1   
 17   7  34  1   
 18   8   9  2   
 19   8  10  am  
 20  10  11  1   
 21  10  51  1   
 22  11  12  1   
 23  11  35  1   
 24  11  36  1   
 25  12  13  2   
 26  12  14  am  
 27  14  15  1   
 28  14  52  1   
 29  15  16  1   
 30  15  37  1   
 31  15  38  1   
 32  16  17  1   
 33  16  25  1   
 34  16  39  1   
 35  17  18  1   
 36  17  40  1   
 37  17  41  1   
 38  18  19  1   
 39  18  42  1   
 40  18  43  1   
 41  19  20  am  
 42  19  24  1   
 43  20  21  2   
 44  20  22  1   
 45  22  23  1   
 46  22  44  1   
 47  22  45  1   
 48  24  25  1   
 49  24  46  1   
 50  24  47  1   
 51  25  48  1   
 52  25  49  1   
@<TRIPOS>SUBSTRUCTURE
  1 LIG  25 GROUP 4 **** **** 0
@<TRIPOS>PROPERTY_DATA
index	|	ligand289
Name	|	MAK-UNK-176-1
ChemPlp	|	-92.5335
MM-GBSA Nwat=0	|	-19.4848
STDEV0	|	3.4437
MM-GBSA Nwat=30	|	-76.3235
STDEV30	|	8.4537
MM-GBSA Nwat=60	|	-88.1196
STDEV60	|	9.5161
ST.DEV < 10%	|	N
RMSD LIG < 2	|	
DIST < 5	|	
DIST < 3.5	|	N

# MOE 2019.01 (io_trps.svl 2018.10)

@<TRIPOS>MOLECULE
ligand465
66 68 1 0 0 
SMALL
USER_CHARGES


@<TRIPOS>ATOM
  1 C1       6.0780    -6.2050    21.2980 C.3   1 LIG   0.0000 
  2 C5       6.3860    -4.7310    21.0870 C.2   1 LIG   0.0000 
  3 O6       5.8640    -4.1320    20.1870 O.2   1 LIG   0.0000 
  4 N7       7.2570    -4.0860    21.9240 N.am  1 LIG   0.0000 
  5 C9       7.5540    -2.6610    21.7200 C.3   1 LIG   0.0000 
  6 C10      6.2570    -1.8690    21.7110 C.3   1 LIG   0.0000 
  7 C13      6.2150    -0.9790    20.4800 C.ar  1 LIG   0.0000 
  8 C14      5.8420    -1.5220    19.2550 C.ar  1 LIG   0.0000 
  9 C16      5.8020    -0.7100    18.1260 C.ar  1 LIG   0.0000 
 10 C18      6.1350     0.6360    18.2370 C.ar  1 LIG   0.0000 
 11 O19      6.0980     1.4270    17.1430 O.3   1 LIG   0.0000 
 12 C21      6.5090     1.1840    19.4600 C.ar  1 LIG   0.0000 
 13 C23      6.5470     0.3680    20.5850 C.ar  1 LIG   0.0000 
 14 C25      8.4440    -2.1620    22.8470 C.2   1 LIG   0.0000 
 15 O26      8.3120    -1.0460    23.2660 O.2   1 LIG   0.0000 
 16 N27      9.3970    -2.9870    23.3840 N.am  1 LIG   0.0000 
 17 C29     10.2580    -2.5050    24.4730 C.3   1 LIG   0.0000 
 18 C30      9.3920    -1.9960    25.6150 C.3   1 LIG   0.0000 
 19 N33      8.4100    -3.0260    25.9820 N.4   1 LIG   1.0000 
 20 C34      9.1690    -4.2050    26.4290 C.3   1 LIG   0.0000 
 21 C37      8.2530    -5.3310    26.8840 C.3   1 LIG   0.0000 
 22 N40      7.1780    -4.8340    27.7560 N.am  1 LIG   0.0000 
 23 C41      6.7010    -5.6710    28.7710 C.2   1 LIG   0.0000 
 24 O42      7.1680    -6.7670    28.9140 O.2   1 LIG   0.0000 
 25 C43      5.5910    -5.1920    29.6920 C.3   1 LIG   0.0000 
 26 CL46     5.7910    -5.9340    31.2980 Cl    1 LIG   0.0000 
 27 C47      6.5960    -3.4900    27.6110 C.3   1 LIG   0.0000 
 28 C50      7.6200    -2.4860    27.1010 C.3   1 LIG   0.0000 
 29 C53     11.1380    -1.3760    23.9620 C.ar  1 LIG   0.0000 
 30 C54     11.2720    -0.2130    24.7130 C.ar  1 LIG   0.0000 
 31 C56     12.0780     0.8180    24.2410 C.ar  1 LIG   0.0000 
 32 C58     12.7430     0.6810    23.0270 C.ar  1 LIG   0.0000 
 33 C60     12.6020    -0.4860    22.2860 C.ar  1 LIG   0.0000 
 34 C62     11.7990    -1.5230    22.7470 C.ar  1 LIG   0.0000 
 35 H14      5.6040    -2.4900    19.1860 H     1 LIG   0.0000 
 36 H16      5.5350    -1.0920    17.2410 H     1 LIG   0.0000 
 37 H21      6.7480     2.1520    19.5280 H     1 LIG   0.0000 
 38 H23      6.8140     0.7490    21.4700 H     1 LIG   0.0000 
 39 H54     10.7930    -0.1180    25.5860 H     1 LIG   0.0000 
 40 H56     12.1790     1.6580    24.7750 H     1 LIG   0.0000 
 41 H58     13.3230     1.4220    22.6880 H     1 LIG   0.0000 
 42 H60     13.0820    -0.5800    21.4140 H     1 LIG   0.0000 
 43 H62     11.6980    -2.3630    22.2120 H     1 LIG   0.0000 
 44 H11      6.5940    -6.5430    22.0850 H     1 LIG   0.0000 
 45 H12      5.1000    -6.3200    21.4660 H     1 LIG   0.0000 
 46 H13      6.3400    -6.7200    20.4820 H     1 LIG   0.0000 
 47 H9       8.0240    -2.5400    20.8460 H     1 LIG   0.0000 
 48 H101     5.4810    -2.5000    21.6920 H     1 LIG   0.0000 
 49 H102     6.2060    -1.3030    22.5340 H     1 LIG   0.0000 
 50 H29     10.8330    -3.2550    24.8000 H     1 LIG   0.0000 
 51 H301     9.9700    -1.7900    26.4040 H     1 LIG   0.0000 
 52 H302     8.9140    -1.1660    25.3260 H     1 LIG   0.0000 
 53 H33      7.8220    -3.2520    25.2050 H     1 LIG   0.0000 
 54 H341     9.7580    -3.9400    27.1930 H     1 LIG   0.0000 
 55 H342     9.7330    -4.5330    25.6720 H     1 LIG   0.0000 
 56 H371     7.8450    -5.7630    26.0790 H     1 LIG   0.0000 
 57 H372     8.7930    -6.0060    27.3870 H     1 LIG   0.0000 
 58 H431     5.6340    -4.1960    29.7770 H     1 LIG   0.0000 
 59 H432     4.7040    -5.4560    29.3110 H     1 LIG   0.0000 
 60 H471     6.2580    -3.1840    28.5010 H     1 LIG   0.0000 
 61 H472     5.8360    -3.5340    26.9630 H     1 LIG   0.0000 
 62 H501     7.1410    -1.6640    26.7920 H     1 LIG   0.0000 
 63 H502     8.2400    -2.2490    27.8490 H     1 LIG   0.0000 
 64 H7       7.6920    -4.5850    22.6740 H     1 LIG   0.0000 
 65 H27      9.5070    -3.9180    23.0340 H     1 LIG   0.0000 
 66 H19      5.2250     1.7970    16.8240 H     1 LIG   0.0000 
@<TRIPOS>BOND
  1   1   2  1   
  2   1  44  1   
  3   1  45  1   
  4   1  46  1   
  5   2   3  2   
  6   2   4  am  
  7   4   5  1   
  8   4  64  1   
  9   5   6  1   
 10   5  14  1   
 11   5  47  1   
 12   6   7  1   
 13   6  48  1   
 14   6  49  1   
 15   7   8  ar  
 16   7  13  ar  
 17   8   9  ar  
 18   8  35  1   
 19   9  10  ar  
 20   9  36  1   
 21  10  11  1   
 22  10  12  ar  
 23  11  66  1   
 24  12  13  ar  
 25  12  37  1   
 26  13  38  1   
 27  14  15  2   
 28  14  16  am  
 29  16  17  1   
 30  16  65  1   
 31  17  18  1   
 32  17  29  1   
 33  17  50  1   
 34  18  19  1   
 35  18  51  1   
 36  18  52  1   
 37  19  20  1   
 38  19  28  1   
 39  19  53  1   
 40  20  21  1   
 41  20  54  1   
 42  20  55  1   
 43  21  22  1   
 44  21  56  1   
 45  21  57  1   
 46  22  23  am  
 47  22  27  1   
 48  23  24  2   
 49  23  25  1   
 50  25  26  1   
 51  25  58  1   
 52  25  59  1   
 53  27  28  1   
 54  27  60  1   
 55  27  61  1   
 56  28  62  1   
 57  28  63  1   
 58  29  30  ar  
 59  29  34  ar  
 60  30  31  ar  
 61  30  39  1   
 62  31  32  ar  
 63  31  40  1   
 64  32  33  ar  
 65  32  41  1   
 66  33  34  ar  
 67  33  42  1   
 68  34  43  1   
@<TRIPOS>SUBSTRUCTURE
  1 LIG  14 GROUP 4 **** **** 0
@<TRIPOS>PROPERTY_DATA
index	|	ligand465
Name	|	NIM-UNI-ed9-4
ChemPlp	|	-109.84
MM-GBSA Nwat=0	|	-21.084
STDEV0	|	4.1477
MM-GBSA Nwat=30	|	-75.2295
STDEV30	|	8.6255
MM-GBSA Nwat=60	|	-91.9575
STDEV60	|	9.3021
ST.DEV < 10%	|	N
RMSD LIG < 2	|	
DIST < 5	|	
DIST < 3.5	|	N

# MOE 2019.01 (io_trps.svl 2018.10)

@<TRIPOS>MOLECULE
ligand412
64 66 1 0 0 
SMALL
USER_CHARGES


@<TRIPOS>ATOM
  1 O1       9.8010     1.8710    21.3030 O.2   1 LIG   0.0000 
  2 C2       9.0900     2.1730    22.2220 C.2   1 LIG   0.0000 
  3 C3       9.6700     2.9010    23.4240 C.3   1 LIG   0.0000 
  4 S6      11.4000     3.3210    23.0970 S.3   1 LIG   0.0000 
  5 C7      12.4770     2.2690    24.1020 C.3   1 LIG   0.0000 
  6 C10     12.3230     0.8210    23.6640 C.ar  1 LIG   0.0000 
  7 C11     13.2050     0.2900    22.7290 C.ar  1 LIG   0.0000 
  8 C13     13.0560    -1.0350    22.3340 C.ar  1 LIG   0.0000 
  9 C15     12.0420    -1.8280    22.8600 C.ar  1 LIG   0.0000 
 10 C17     11.1700    -1.2770    23.7940 C.ar  1 LIG   0.0000 
 11 C18     10.0560    -2.1280    24.3810 C.3   1 LIG   0.0000 
 12 N21      9.5310    -3.0300    23.3460 N.4   1 LIG   1.0000 
 13 C23      8.6050    -3.9590    24.0150 C.3   1 LIG   0.0000 
 14 C26      7.9560    -4.9200    23.0300 C.3   1 LIG   0.0000 
 15 N29      7.4790    -4.2210    21.8270 N.am  1 LIG   0.0000 
 16 C30      6.3340    -4.7050    21.1830 C.2   1 LIG   0.0000 
 17 O31      5.9210    -4.1560    20.2000 O.2   1 LIG   0.0000 
 18 C32      5.6140    -5.9270    21.7300 C.3   1 LIG   0.0000 
 19 CL35     4.4590    -5.4220    22.9870 Cl    1 LIG   0.0000 
 20 C36      8.1500    -3.0290    21.2840 C.3   1 LIG   0.0000 
 21 C39      8.7930    -2.1950    22.3830 C.3   1 LIG   0.0000 
 22 C42     11.3020     0.0460    24.2030 C.ar  1 LIG   0.0000 
 23 C44      7.6110     1.8270    22.1850 C.3   1 LIG   0.0000 
 24 N47      7.2060     1.5540    20.7960 N.4   1 LIG   1.0000 
 25 C49      5.7420     1.5740    20.6590 C.3   1 LIG   0.0000 
 26 C52      5.3210     1.3240    19.2200 C.3   1 LIG   0.0000 
 27 C55      5.8720    -0.0150    18.7520 C.3   1 LIG   0.0000 
 28 O57      5.5010    -0.2450    17.4000 O.3   1 LIG   0.0000 
 29 C59      7.3860     0.0140    18.8850 C.3   1 LIG   0.0000 
 30 C62      7.7780     0.2820    20.3290 C.3   1 LIG   0.0000 
 31 H11     13.9370     0.8540    22.3460 H     1 LIG   0.0000 
 32 H13     13.6870    -1.4230    21.6620 H     1 LIG   0.0000 
 33 H15     11.9400    -2.7800    22.5720 H     1 LIG   0.0000 
 34 H42     10.6710     0.4340    24.8750 H     1 LIG   0.0000 
 35 H31      9.1490     3.7380    23.5900 H     1 LIG   0.0000 
 36 H32      9.6170     2.3100    24.2290 H     1 LIG   0.0000 
 37 H71     12.2220     2.3550    25.0650 H     1 LIG   0.0000 
 38 H72     13.4280     2.5540    23.9820 H     1 LIG   0.0000 
 39 H181    10.4140    -2.6670    25.1430 H     1 LIG   0.0000 
 40 H182     9.3210    -1.5340    24.7100 H     1 LIG   0.0000 
 41 H21     10.2720    -3.5260    22.8950 H     1 LIG   0.0000 
 42 H231     7.8880    -3.4300    24.4700 H     1 LIG   0.0000 
 43 H232     9.1120    -4.4870    24.6960 H     1 LIG   0.0000 
 44 H261     8.6270    -5.6110    22.7600 H     1 LIG   0.0000 
 45 H262     7.1800    -5.3670    23.4760 H     1 LIG   0.0000 
 46 H321     5.1210    -6.3830    20.9890 H     1 LIG   0.0000 
 47 H322     6.2810    -6.5580    22.1250 H     1 LIG   0.0000 
 48 H361     7.4760    -2.4680    20.8040 H     1 LIG   0.0000 
 49 H362     8.8600    -3.3200    20.6420 H     1 LIG   0.0000 
 50 H391     9.4270    -1.5450    21.9660 H     1 LIG   0.0000 
 51 H392     8.0760    -1.6960    22.8710 H     1 LIG   0.0000 
 52 H441     7.4440     1.0160    22.7460 H     1 LIG   0.0000 
 53 H442     7.0800     2.5950    22.5420 H     1 LIG   0.0000 
 54 H47      7.5760     2.2850    20.2210 H     1 LIG   0.0000 
 55 H491     5.3980     2.4670    20.9490 H     1 LIG   0.0000 
 56 H492     5.3500     0.8620    21.2420 H     1 LIG   0.0000 
 57 H521     4.3230     1.3110    19.1620 H     1 LIG   0.0000 
 58 H522     5.6800     2.0530    18.6370 H     1 LIG   0.0000 
 59 H55      5.5020    -0.7450    19.3260 H     1 LIG   0.0000 
 60 H591     7.7560     0.7370    18.3020 H     1 LIG   0.0000 
 61 H592     7.7600    -0.8680    18.5990 H     1 LIG   0.0000 
 62 H621     7.4380    -0.4610    20.9050 H     1 LIG   0.0000 
 63 H622     8.7740     0.3270    20.3960 H     1 LIG   0.0000 
 64 H57      4.6350    -0.7450    17.3740 H     1 LIG   0.0000 
@<TRIPOS>BOND
  1   1   2  2   
  2   2   3  1   
  3   2  23  1   
  4   3   4  1   
  5   3  35  1   
  6   3  36  1   
  7   4   5  1   
  8   5   6  1   
  9   5  37  1   
 10   5  38  1   
 11   6   7  ar  
 12   6  22  ar  
 13   7   8  ar  
 14   7  31  1   
 15   8   9  ar  
 16   8  32  1   
 17   9  10  ar  
 18   9  33  1   
 19  10  11  1   
 20  10  22  ar  
 21  11  12  1   
 22  11  39  1   
 23  11  40  1   
 24  12  13  1   
 25  12  21  1   
 26  12  41  1   
 27  13  14  1   
 28  13  42  1   
 29  13  43  1   
 30  14  15  1   
 31  14  44  1   
 32  14  45  1   
 33  15  16  am  
 34  15  20  1   
 35  16  17  2   
 36  16  18  1   
 37  18  19  1   
 38  18  46  1   
 39  18  47  1   
 40  20  21  1   
 41  20  48  1   
 42  20  49  1   
 43  21  50  1   
 44  21  51  1   
 45  22  34  1   
 46  23  24  1   
 47  23  52  1   
 48  23  53  1   
 49  24  25  1   
 50  24  30  1   
 51  24  54  1   
 52  25  26  1   
 53  25  55  1   
 54  25  56  1   
 55  26  27  1   
 56  26  57  1   
 57  26  58  1   
 58  27  28  1   
 59  27  29  1   
 60  27  59  1   
 61  28  64  1   
 62  29  30  1   
 63  29  60  1   
 64  29  61  1   
 65  30  62  1   
 66  30  63  1   
@<TRIPOS>SUBSTRUCTURE
  1 LIG  21 GROUP 4 **** **** 0
@<TRIPOS>PROPERTY_DATA
index	|	ligand412
Name	|	MAK-UNK-e4a-7
ChemPlp	|	-111.818
MM-GBSA Nwat=0	|	-9.8625
STDEV0	|	4.5861
MM-GBSA Nwat=30	|	-72.4409
STDEV30	|	9.0886
MM-GBSA Nwat=60	|	-89.5472
STDEV60	|	7.8873
ST.DEV < 10%	|	N
RMSD LIG < 2	|	
DIST < 5	|	
DIST < 3.5	|	N

# MOE 2019.01 (io_trps.svl 2018.10)

@<TRIPOS>MOLECULE
ligand402
75 78 1 0 0 
SMALL
USER_CHARGES


@<TRIPOS>ATOM
  1 C1      13.4510     3.8660    23.2000 C.3   1 LIG   0.0000 
  2 C5      12.1160     3.9870    23.9160 C.ar  1 LIG   0.0000 
  3 C6      11.5810     5.2560    24.1140 C.ar  1 LIG   0.0000 
  4 C8      10.3600     5.3900    24.7660 C.ar  1 LIG   0.0000 
  5 C9       9.7770     6.7770    24.9810 C.3   1 LIG   0.0000 
  6 N12      8.4570     6.8590    24.3380 N.4   1 LIG   1.0000 
  7 C14      7.9310     8.2080    24.6060 C.3   1 LIG   0.0000 
  8 C17      6.5790     8.4310    23.9460 C.3   1 LIG   0.0000 
  9 N20      6.5730     7.9550    22.5540 N.am  1 LIG   0.0000 
 10 C21      5.7790     8.6310    21.6210 C.2   1 LIG   0.0000 
 11 O22      5.1240     9.5760    21.9630 O.2   1 LIG   0.0000 
 12 C23      5.7460     8.1680    20.1730 C.3   1 LIG   0.0000 
 13 CL26     4.3560     8.9080    19.3450 Cl    1 LIG   0.0000 
 14 C27      7.3770     6.8060    22.1050 C.3   1 LIG   0.0000 
 15 C30      8.6730     6.6860    22.8920 C.3   1 LIG   0.0000 
 16 C33      9.6650     4.2750    25.2240 C.ar  1 LIG   0.0000 
 17 C35     10.2100     3.0110    25.0200 C.ar  1 LIG   0.0000 
 18 C37     11.4300     2.8640    24.3690 C.ar  1 LIG   0.0000 
 19 C38     12.0130     1.4790    24.1530 C.3   1 LIG   0.0000 
 20 O39     12.4790     1.3050    22.8250 O.3   1 LIG   0.0000 
 21 C40     12.2880    -0.0270    22.3880 C.3   1 LIG   0.0000 
 22 C41     13.5820    -0.7320    22.0280 C.3   1 LIG   0.0000 
 23 O44     13.2880    -1.9370    21.3370 O.3   1 LIG   0.0000 
 24 C46     11.5580    -0.7410    23.5090 C.3   1 LIG   0.0000 
 25 O47     10.5690    -1.6400    23.0290 O.3   1 LIG   0.0000 
 26 C48      9.6470    -0.9360    22.2100 C.3   1 LIG   0.0000 
 27 N51      8.6660    -1.8820    21.6510 N.4   1 LIG   1.0000 
 28 C53      7.4170    -1.1950    21.2900 C.3   1 LIG   0.0000 
 29 C56      6.4140    -2.1630    20.6830 C.3   1 LIG   0.0000 
 30 C59      6.1260    -3.2850    21.6690 C.3   1 LIG   0.0000 
 31 O61      5.2040    -4.2060    21.1000 O.3   1 LIG   0.0000 
 32 C63      7.4360    -3.9850    21.9980 C.3   1 LIG   0.0000 
 33 C66      8.4240    -2.9910    22.5860 C.3   1 LIG   0.0000 
 34 C69     10.9540     0.4030    24.2890 C.3   1 LIG   0.0000 
 35 O70     10.7030     0.0560    25.6460 O.3   1 LIG   0.0000 
 36 H6      12.0700     6.0660    23.7890 H     1 LIG   0.0000 
 37 H33      8.7880     4.3800    25.6920 H     1 LIG   0.0000 
 38 H35      9.7200     2.2020    25.3450 H     1 LIG   0.0000 
 39 H11     13.7820     4.7770    22.9540 H     1 LIG   0.0000 
 40 H12     14.1140     3.4220    23.8030 H     1 LIG   0.0000 
 41 H13     13.3370     3.3180    22.3710 H     1 LIG   0.0000 
 42 H91      9.6810     6.9500    25.9610 H     1 LIG   0.0000 
 43 H92     10.3860     7.4600    24.5800 H     1 LIG   0.0000 
 44 H12      7.8410     6.1570    24.6950 H     1 LIG   0.0000 
 45 H141     8.5790     8.8830    24.2540 H     1 LIG   0.0000 
 46 H142     7.8320     8.3260    25.5940 H     1 LIG   0.0000 
 47 H171     5.8800     7.9370    24.4620 H     1 LIG   0.0000 
 48 H172     6.3710     9.4090    23.9550 H     1 LIG   0.0000 
 49 H231     6.5920     8.4430    19.7160 H     1 LIG   0.0000 
 50 H232     5.6600     7.1720    20.1440 H     1 LIG   0.0000 
 51 H271     7.5950     6.9220    21.1360 H     1 LIG   0.0000 
 52 H272     6.8430     5.9690    22.2280 H     1 LIG   0.0000 
 53 H301     9.0660     5.7800    22.7300 H     1 LIG   0.0000 
 54 H302     9.3110     7.3870    22.5740 H     1 LIG   0.0000 
 55 H38     12.7550     1.3140    24.8020 H     1 LIG   0.0000 
 56 H40     11.6980    -0.0160    21.5820 H     1 LIG   0.0000 
 57 H411    14.1330    -0.1380    21.4420 H     1 LIG   0.0000 
 58 H412    14.0910    -0.9420    22.8630 H     1 LIG   0.0000 
 59 H46     12.2140    -1.2320    24.0820 H     1 LIG   0.0000 
 60 H481    10.1380    -0.4870    21.4640 H     1 LIG   0.0000 
 61 H482     9.1710    -0.2480    22.7580 H     1 LIG   0.0000 
 62 H51      9.0560    -2.2670    20.8150 H     1 LIG   0.0000 
 63 H531     7.6200    -0.4760    20.6240 H     1 LIG   0.0000 
 64 H532     7.0200    -0.7850    22.1110 H     1 LIG   0.0000 
 65 H561     5.5650    -1.6760    20.4760 H     1 LIG   0.0000 
 66 H562     6.7910    -2.5480    19.8410 H     1 LIG   0.0000 
 67 H59      5.7370    -2.9000    22.5060 H     1 LIG   0.0000 
 68 H631     7.8190    -4.3780    21.1630 H     1 LIG   0.0000 
 69 H632     7.2640    -4.7130    22.6620 H     1 LIG   0.0000 
 70 H661     8.0540    -2.6260    23.4400 H     1 LIG   0.0000 
 71 H662     9.2890    -3.4580    22.7710 H     1 LIG   0.0000 
 72 H69     10.1060     0.7030    23.8520 H     1 LIG   0.0000 
 73 H44     12.6150    -1.7550    20.6200 H     1 LIG   0.0000 
 74 H61      5.5760    -5.1320    21.1620 H     1 LIG   0.0000 
 75 H70     10.5560     0.8870    26.1810 H     1 LIG   0.0000 
@<TRIPOS>BOND
  1   1   2  1   
  2   1  39  1   
  3   1  40  1   
  4   1  41  1   
  5   2   3  ar  
  6   2  18  ar  
  7   3   4  ar  
  8   3  36  1   
  9   4   5  1   
 10   4  16  ar  
 11   5   6  1   
 12   5  42  1   
 13   5  43  1   
 14   6   7  1   
 15   6  15  1   
 16   6  44  1   
 17   7   8  1   
 18   7  45  1   
 19   7  46  1   
 20   8   9  1   
 21   8  47  1   
 22   8  48  1   
 23   9  10  am  
 24   9  14  1   
 25  10  11  2   
 26  10  12  1   
 27  12  13  1   
 28  12  49  1   
 29  12  50  1   
 30  14  15  1   
 31  14  51  1   
 32  14  52  1   
 33  15  53  1   
 34  15  54  1   
 35  16  17  ar  
 36  16  37  1   
 37  17  18  ar  
 38  17  38  1   
 39  18  19  1   
 40  19  20  1   
 41  19  34  1   
 42  19  55  1   
 43  20  21  1   
 44  21  22  1   
 45  21  24  1   
 46  21  56  1   
 47  22  23  1   
 48  22  57  1   
 49  22  58  1   
 50  23  73  1   
 51  24  25  1   
 52  24  34  1   
 53  24  59  1   
 54  25  26  1   
 55  26  27  1   
 56  26  60  1   
 57  26  61  1   
 58  27  28  1   
 59  27  33  1   
 60  27  62  1   
 61  28  29  1   
 62  28  63  1   
 63  28  64  1   
 64  29  30  1   
 65  29  65  1   
 66  29  66  1   
 67  30  31  1   
 68  30  32  1   
 69  30  67  1   
 70  31  74  1   
 71  32  33  1   
 72  32  68  1   
 73  32  69  1   
 74  33  70  1   
 75  33  71  1   
 76  34  35  1   
 77  34  72  1   
 78  35  75  1   
@<TRIPOS>SUBSTRUCTURE
  1 LIG  17 GROUP 4 **** **** 0
@<TRIPOS>PROPERTY_DATA
index	|	ligand402
Name	|	MAK-UNK-e4a-19
ChemPlp	|	-108.948
MM-GBSA Nwat=0	|	-24.8347
STDEV0	|	4.9341
MM-GBSA Nwat=30	|	-66.4029
STDEV30	|	8.2251
MM-GBSA Nwat=60	|	-86.816
STDEV60	|	6.7295
ST.DEV < 10%	|	N
RMSD LIG < 2	|	
DIST < 5	|	
DIST < 3.5	|	N

# MOE 2019.01 (io_trps.svl 2018.10)

@<TRIPOS>MOLECULE
ligand122
49 50 1 0 0 
SMALL
NO_CHARGES


@<TRIPOS>ATOM
  1 C1       7.2070    -5.6380    21.0970 C.3   1 LIG   0.0000 
  2 C5       6.4010    -4.3840    21.3930 C.2   1 LIG   0.0000 
  3 O6       5.2020    -4.4280    21.3930 O.2   1 LIG   0.0000 
  4 N7       7.0430    -3.2040    21.6590 N.am  1 LIG   0.0000 
  5 C9       6.2630    -1.9910    21.9440 C.3   1 LIG   0.0000 
  6 C10      6.9150    -1.2260    23.0850 C.3   1 LIG   0.0000 
  7 C13      8.4060    -1.0940    22.8190 C.3   1 LIG   0.0000 
  8 C16      9.1390    -0.8930    24.1350 C.3   1 LIG   0.0000 
  9 N17      9.1780    -2.1630    24.8740 N.am  1 LIG   0.0000 
 10 C19      8.7590    -2.2100    26.1780 C.2   1 LIG   0.0000 
 11 O20      8.3610    -1.2140    26.7160 O.2   1 LIG   0.0000 
 12 C21      8.7990    -3.5240    26.9420 C.3   1 LIG   0.0000 
 13 CL24     9.6980    -4.7330    25.9950 Cl    1 LIG   0.0000 
 14 C25     10.5580    -0.4240    23.8580 C.ar  1 LIG   0.0000 
 15 C26     11.0820     0.6570    24.5580 C.ar  1 LIG   0.0000 
 16 C28     12.3830     1.0720    24.2920 C.ar  1 LIG   0.0000 
 17 C30     13.1580     0.4200    23.3390 C.ar  1 LIG   0.0000 
 18 C32     12.6150    -0.6590    22.6490 C.ar  1 LIG   0.0000 
 19 CL33    13.6000    -1.4990    21.4270 Cl    1 LIG   0.0000 
 20 C34     11.3170    -1.0900    22.9000 C.ar  1 LIG   0.0000 
 21 C36      6.2200    -1.1130    20.7050 C.ar  1 LIG   0.0000 
 22 C37      5.9410    -1.6870    19.4690 C.ar  1 LIG   0.0000 
 23 C39      5.9000    -0.8870    18.3320 C.ar  1 LIG   0.0000 
 24 C41      6.1380     0.4800    18.4460 C.ar  1 LIG   0.0000 
 25 O42      6.0990     1.2600    17.3450 O.3   1 LIG   0.0000 
 26 C44      6.4170     1.0580    19.6800 C.ar  1 LIG   0.0000 
 27 C46      6.4560     0.2540    20.8130 C.ar  1 LIG   0.0000 
 28 H26     10.5300     1.1310    25.2450 H     1 LIG   0.0000 
 29 H28     12.7650     1.8490    24.7920 H     1 LIG   0.0000 
 30 H30     14.0920     0.7230    23.1520 H     1 LIG   0.0000 
 31 H34     10.9340    -1.8670    22.4000 H     1 LIG   0.0000 
 32 H37      5.7720    -2.6700    19.3980 H     1 LIG   0.0000 
 33 H39      5.7010    -1.2900    17.4390 H     1 LIG   0.0000 
 34 H44      6.5870     2.0410    19.7500 H     1 LIG   0.0000 
 35 H46      6.6550     0.6580    21.7060 H     1 LIG   0.0000 
 36 H11      8.1830    -5.4240    21.1380 H     1 LIG   0.0000 
 37 H12      6.9910    -6.3410    21.7750 H     1 LIG   0.0000 
 38 H13      6.9780    -5.9750    20.1840 H     1 LIG   0.0000 
 39 H9       5.3320    -2.2470    22.2040 H     1 LIG   0.0000 
 40 H101     6.7720    -1.7200    23.9420 H     1 LIG   0.0000 
 41 H102     6.5060    -0.3160    23.1520 H     1 LIG   0.0000 
 42 H131     8.7400    -1.9250    22.3750 H     1 LIG   0.0000 
 43 H132     8.5690    -0.3080    22.2230 H     1 LIG   0.0000 
 44 H16      8.6610    -0.2040    24.6810 H     1 LIG   0.0000 
 45 H211     9.2530    -3.3840    27.8210 H     1 LIG   0.0000 
 46 H212     7.8660    -3.8480    27.0960 H     1 LIG   0.0000 
 47 H7       8.0420    -3.1670    21.6580 H     1 LIG   0.0000 
 48 H17      9.5090    -2.9930    24.4250 H     1 LIG   0.0000 
 49 H42      5.2210     1.4840    16.9220 H     1 LIG   0.0000 
@<TRIPOS>BOND
  1   1   2  1   
  2   1  36  1   
  3   1  37  1   
  4   1  38  1   
  5   2   3  2   
  6   2   4  am  
  7   4   5  1   
  8   4  47  1   
  9   5   6  1   
 10   5  21  1   
 11   5  39  1   
 12   6   7  1   
 13   6  40  1   
 14   6  41  1   
 15   7   8  1   
 16   7  42  1   
 17   7  43  1   
 18   8   9  1   
 19   8  14  1   
 20   8  44  1   
 21   9  10  am  
 22   9  48  1   
 23  10  11  2   
 24  10  12  1   
 25  12  13  1   
 26  12  45  1   
 27  12  46  1   
 28  14  15  ar  
 29  14  20  ar  
 30  15  16  ar  
 31  15  28  1   
 32  16  17  ar  
 33  16  29  1   
 34  17  18  ar  
 35  17  30  1   
 36  18  19  1   
 37  18  20  ar  
 38  20  31  1   
 39  21  22  ar  
 40  21  27  ar  
 41  22  23  ar  
 42  22  32  1   
 43  23  24  ar  
 44  23  33  1   
 45  24  25  1   
 46  24  26  ar  
 47  25  49  1   
 48  26  27  ar  
 49  26  34  1   
 50  27  35  1   
@<TRIPOS>SUBSTRUCTURE
  1 LIG   7 GROUP 4 **** **** 0
@<TRIPOS>PROPERTY_DATA
index	|	ligand122
Name	|	DAV-CRI-25b-1
ChemPlp	|	-102.76
MM-GBSA Nwat=0	|	-22.4023
STDEV0	|	2.6808
MM-GBSA Nwat=30	|	-65.9219
STDEV30	|	6.9631
MM-GBSA Nwat=60	|	-70.9894
STDEV60	|	6.7993
ST.DEV < 10%	|	N
RMSD LIG < 2	|	
DIST < 5	|	
DIST < 3.5	|	N

# MOE 2019.01 (io_trps.svl 2018.10)

@<TRIPOS>MOLECULE
ligand438
83 87 1 0 0 
SMALL
USER_CHARGES


@<TRIPOS>ATOM
  1 N1       9.0920     3.6980    25.8940 N.am  1 LIG   0.0000 
  2 S4      10.0570     4.2530    24.7030 S.o2  1 LIG   0.0000 
  3 O5      10.9160     5.2850    25.2230 O.2   1 LIG   0.0000 
  4 O6       9.2470     4.7930    23.6410 O.2   1 LIG   0.0000 
  5 C7      11.0270     2.9480    24.0860 C.ar  1 LIG   0.0000 
  6 C8      12.3690     3.1370    23.7750 C.ar  1 LIG   0.0000 
  7 C10     13.1030     2.0620    23.2840 C.ar  1 LIG   0.0000 
  8 C12     12.5060     0.8170    23.1050 C.ar  1 LIG   0.0000 
  9 C13     13.2730    -0.2330    22.6100 C.ar  1 LIG   0.0000 
 10 C15     12.6980    -1.4860    22.4230 C.ar  1 LIG   0.0000 
 11 C17     11.3560    -1.6900    22.7300 C.ar  1 LIG   0.0000 
 12 C19     10.5880    -0.6400    23.2230 C.ar  1 LIG   0.0000 
 13 C20      9.1280    -0.9260    23.5380 C.3   1 LIG   0.0000 
 14 N23      9.0000    -2.2860    24.0780 N.4   1 LIG   1.0000 
 15 C24      9.2230    -2.1980    25.5300 C.3   1 LIG   0.0000 
 16 C27      9.1340    -3.5590    26.2040 C.3   1 LIG   0.0000 
 17 N30      7.9890    -4.3410    25.7090 N.am  1 LIG   0.0000 
 18 C31      7.3610    -5.2250    26.5950 C.2   1 LIG   0.0000 
 19 O32      6.4270    -5.8820    26.2260 O.2   1 LIG   0.0000 
 20 C33      7.8610    -5.3510    28.0250 C.3   1 LIG   0.0000 
 21 CL36     6.5410    -5.9340    29.0670 Cl    1 LIG   0.0000 
 22 C37      7.4950    -4.2270    24.3260 C.3   1 LIG   0.0000 
 23 C38      6.0330    -4.6220    24.1890 C.ar  1 LIG   0.0000 
 24 C39      5.0540    -3.9150    24.8800 C.ar  1 LIG   0.0000 
 25 N41      3.7600    -4.2500    24.7700 N.ar  1 LIG   0.0000 
 26 C42      3.3670    -5.2720    23.9970 C.ar  1 LIG   0.0000 
 27 C44      4.2950    -6.0200    23.2800 C.ar  1 LIG   0.0000 
 28 C46      5.6410    -5.6850    23.3820 C.ar  1 LIG   0.0000 
 29 C47      6.6550    -6.5020    22.5990 C.3   1 LIG   0.0000 
 30 C50      6.8370    -5.8950    21.2170 C.3   1 LIG   0.0000 
 31 N53      7.2110    -4.4800    21.3500 N.am  1 LIG   0.0000 
 32 C55      6.4620    -3.5130    20.7330 C.2   1 LIG   0.0000 
 33 O56      5.5000    -3.8210    20.0850 O.2   1 LIG   0.0000 
 34 N57      6.8110    -2.1940    20.8560 N.am  1 LIG   0.0000 
 35 C59      6.0070    -1.1560    20.1950 C.3   1 LIG   0.0000 
 36 C61      6.1660     0.1680    20.9250 C.3   1 LIG   0.0000 
 37 C64      5.3350     1.2430    20.2430 C.3   1 LIG   0.0000 
 38 C67      5.7650     1.3930    18.7920 C.3   1 LIG   0.0000 
 39 C70      5.6050     0.0690    18.0620 C.3   1 LIG   0.0000 
 40 C73      6.4360    -1.0050    18.7440 C.3   1 LIG   0.0000 
 41 C76      7.6350    -2.7880    23.8520 C.3   1 LIG   0.0000 
 42 C79     11.1640     0.6150    23.4120 C.ar  1 LIG   0.0000 
 43 C80     10.4420     1.7000    23.9030 C.ar  1 LIG   0.0000 
 44 H8      12.8000     4.0300    23.9030 H     1 LIG   0.0000 
 45 H10     14.0690     2.1850    23.0560 H     1 LIG   0.0000 
 46 H80      9.4750     1.5770    24.1310 H     1 LIG   0.0000 
 47 H13     14.2370    -0.0870    22.3880 H     1 LIG   0.0000 
 48 H15     13.2500    -2.2410    22.0680 H     1 LIG   0.0000 
 49 H17     10.9440    -2.5900    22.5950 H     1 LIG   0.0000 
 50 H39      5.3190    -3.1480    25.4640 H     1 LIG   0.0000 
 51 H42      2.3950    -5.4990    23.9350 H     1 LIG   0.0000 
 52 H44      4.0010    -6.7820    22.7040 H     1 LIG   0.0000 
 53 H201     8.7980    -0.2660    24.2130 H     1 LIG   0.0000 
 54 H202     8.5850    -0.8460    22.7020 H     1 LIG   0.0000 
 55 H23      9.6710    -2.8960    23.6560 H     1 LIG   0.0000 
 56 H241     8.5310    -1.5950    25.9280 H     1 LIG   0.0000 
 57 H242    10.1320    -1.8150    25.6950 H     1 LIG   0.0000 
 58 H271     9.9760    -4.0670    26.0210 H     1 LIG   0.0000 
 59 H272     9.0320    -3.4260    27.1900 H     1 LIG   0.0000 
 60 H331     8.6210    -6.0000    28.0560 H     1 LIG   0.0000 
 61 H332     8.1720    -4.4580    28.3500 H     1 LIG   0.0000 
 62 H37      8.0460    -4.8160    23.7350 H     1 LIG   0.0000 
 63 H471     6.3280    -7.4430    22.5090 H     1 LIG   0.0000 
 64 H472     7.5310    -6.4990    23.0820 H     1 LIG   0.0000 
 65 H501     7.5580    -6.3860    20.7300 H     1 LIG   0.0000 
 66 H502     5.9800    -5.9670    20.7060 H     1 LIG   0.0000 
 67 H59      5.0440    -1.4260    20.2220 H     1 LIG   0.0000 
 68 H611     7.1290     0.4380    20.9140 H     1 LIG   0.0000 
 69 H612     5.8600     0.0640    21.8710 H     1 LIG   0.0000 
 70 H641     5.4650     2.1130    20.7180 H     1 LIG   0.0000 
 71 H642     4.3700     0.9850    20.2760 H     1 LIG   0.0000 
 72 H671     6.7240     1.6750    18.7590 H     1 LIG   0.0000 
 73 H672     5.1980     2.0860    18.3490 H     1 LIG   0.0000 
 74 H701     4.6420    -0.2000    18.0720 H     1 LIG   0.0000 
 75 H702     5.9120     0.1740    17.1160 H     1 LIG   0.0000 
 76 H731     6.3050    -1.8760    18.2690 H     1 LIG   0.0000 
 77 H732     7.4010    -0.7480    18.7100 H     1 LIG   0.0000 
 78 H761     7.4280    -2.7440    22.8750 H     1 LIG   0.0000 
 79 H762     6.9890    -2.2140    24.3560 H     1 LIG   0.0000 
 80 H11      9.5580     2.9610    26.3830 H     1 LIG   0.0000 
 81 H12      8.8850     4.4420    26.5290 H     1 LIG   0.0000 
 82 H53      8.0130    -4.2230    21.8900 H     1 LIG   0.0000 
 83 H57      7.6120    -1.9370    21.3960 H     1 LIG   0.0000 
@<TRIPOS>BOND
  1   1   2  am  
  2   1  80  1   
  3   1  81  1   
  4   2   3  2   
  5   2   4  2   
  6   2   5  1   
  7   5   6  ar  
  8   5  43  ar  
  9   6   7  ar  
 10   6  44  1   
 11   7   8  ar  
 12   7  45  1   
 13   8   9  ar  
 14   8  42  ar  
 15   9  10  ar  
 16   9  47  1   
 17  10  11  ar  
 18  10  48  1   
 19  11  12  ar  
 20  11  49  1   
 21  12  13  1   
 22  12  42  ar  
 23  13  14  1   
 24  13  53  1   
 25  13  54  1   
 26  14  15  1   
 27  14  41  1   
 28  14  55  1   
 29  15  16  1   
 30  15  56  1   
 31  15  57  1   
 32  16  17  1   
 33  16  58  1   
 34  16  59  1   
 35  17  18  am  
 36  17  22  1   
 37  18  19  2   
 38  18  20  1   
 39  20  21  1   
 40  20  60  1   
 41  20  61  1   
 42  22  23  1   
 43  22  41  1   
 44  22  62  1   
 45  23  24  ar  
 46  23  28  ar  
 47  24  25  ar  
 48  24  50  1   
 49  25  26  ar  
 50  26  27  ar  
 51  26  51  1   
 52  27  28  ar  
 53  27  52  1   
 54  28  29  1   
 55  29  30  1   
 56  29  63  1   
 57  29  64  1   
 58  30  31  1   
 59  30  65  1   
 60  30  66  1   
 61  31  32  am  
 62  31  82  1   
 63  32  33  2   
 64  32  34  am  
 65  34  35  1   
 66  34  83  1   
 67  35  36  1   
 68  35  40  1   
 69  35  67  1   
 70  36  37  1   
 71  36  68  1   
 72  36  69  1   
 73  37  38  1   
 74  37  70  1   
 75  37  71  1   
 76  38  39  1   
 77  38  72  1   
 78  38  73  1   
 79  39  40  1   
 80  39  74  1   
 81  39  75  1   
 82  40  76  1   
 83  40  77  1   
 84  41  78  1   
 85  41  79  1   
 86  42  43  ar  
 87  43  46  1   
@<TRIPOS>SUBSTRUCTURE
  1 LIG  13 GROUP 4 **** **** 0
@<TRIPOS>PROPERTY_DATA
index	|	ligand438
Name	|	NIM-UNI-363-2
ChemPlp	|	-111.451
MM-GBSA Nwat=0	|	-4.6849
STDEV0	|	5.539
MM-GBSA Nwat=30	|	-65.4653
STDEV30	|	12.7542
MM-GBSA Nwat=60	|	-93.9558
STDEV60	|	13.0008
ST.DEV < 10%	|	N
RMSD LIG < 2	|	
DIST < 5	|	
DIST < 3.5	|	N

# MOE 2019.01 (io_trps.svl 2018.10)

@<TRIPOS>MOLECULE
ligand290
61 62 1 0 0 
SMALL
USER_CHARGES


@<TRIPOS>ATOM
  1 C1       7.8970     2.8610    25.4120 C.3   1 LIG   0.0000 
  2 N5       9.3500     2.7680    25.2100 N.am  1 LIG   0.0000 
  3 C7       9.8860     3.0080    23.9730 C.2   1 LIG   0.0000 
  4 O8       9.1700     3.2940    23.0540 O.2   1 LIG   0.0000 
  5 C9      11.3890     2.9120    23.7640 C.3   1 LIG   0.0000 
  6 N10     11.7740     3.7180    22.5970 N.4   1 LIG   1.0000 
  7 C13     12.1690     5.0630    23.0390 C.3   1 LIG   0.0000 
  8 C16     10.9570     5.7860    23.6040 C.3   1 LIG   0.0000 
  9 N19      9.8720     5.7720    22.6140 N.am  1 LIG   0.0000 
 10 C21      8.6790     6.3860    22.8950 C.2   1 LIG   0.0000 
 11 C22      7.5570     6.3720    21.8700 C.3   1 LIG   0.0000 
 12 O26      8.5220     6.9350    23.9500 O.2   1 LIG   0.0000 
 13 C27     11.7750     1.4600    23.5280 C.ar  1 LIG   0.0000 
 14 C28     12.9780     1.1660    22.8950 C.ar  1 LIG   0.0000 
 15 C30     13.3240    -0.1650    22.6820 C.ar  1 LIG   0.0000 
 16 C32     12.4850    -1.1950    23.0940 C.ar  1 LIG   0.0000 
 17 C34     11.2860    -0.8780    23.7240 C.ar  1 LIG   0.0000 
 18 C35     10.3560    -1.9900    24.1810 C.3   1 LIG   0.0000 
 19 N38      9.6900    -2.5840    23.0130 N.4   1 LIG   1.0000 
 20 C40      8.6940    -3.5390    23.5240 C.3   1 LIG   0.0000 
 21 C43      7.9010    -4.1890    22.4000 C.3   1 LIG   0.0000 
 22 N46      7.4570    -3.1960    21.4090 N.am  1 LIG   0.0000 
 23 C47      6.2400    -3.4070    20.7520 C.2   1 LIG   0.0000 
 24 O48      5.5840    -4.3810    21.0010 O.2   1 LIG   0.0000 
 25 C49      5.7480    -2.4040    19.7210 C.3   1 LIG   0.0000 
 26 CL52     5.8130    -0.7640    20.4120 Cl    1 LIG   0.0000 
 27 C53      8.2360    -1.9880    21.0930 C.3   1 LIG   0.0000 
 28 C56      9.0120    -1.4870    22.3020 C.3   1 LIG   0.0000 
 29 C59     10.9220     0.4460    23.9470 C.ar  1 LIG   0.0000 
 30 H28     13.5870     1.9010    22.5970 H     1 LIG   0.0000 
 31 H30     14.1880    -0.3840    22.2280 H     1 LIG   0.0000 
 32 H32     12.7400    -2.1490    22.9380 H     1 LIG   0.0000 
 33 H59     10.0580     0.6640    24.4010 H     1 LIG   0.0000 
 34 H11      7.6790     2.6570    26.3670 H     1 LIG   0.0000 
 35 H12      7.5880     3.7860    25.1910 H     1 LIG   0.0000 
 36 H13      7.4350     2.2040    24.8170 H     1 LIG   0.0000 
 37 H9      11.8610     3.2540    24.5760 H     1 LIG   0.0000 
 38 H101    10.9980     3.7870    21.9690 H     1 LIG   0.0000 
 39 H102    12.5430     3.2810    22.1290 H     1 LIG   0.0000 
 40 H131    12.5300     5.5770    22.2610 H     1 LIG   0.0000 
 41 H132    12.8720     4.9880    23.7450 H     1 LIG   0.0000 
 42 H161    10.6540     5.3260    24.4380 H     1 LIG   0.0000 
 43 H162    11.2030     6.7320    23.8160 H     1 LIG   0.0000 
 44 H221     7.8560     5.8760    21.0550 H     1 LIG   0.0000 
 45 H222     6.7550     5.9190    22.2610 H     1 LIG   0.0000 
 46 H223     7.3210     7.3110    21.6220 H     1 LIG   0.0000 
 47 H351    10.8850    -2.6940    24.6560 H     1 LIG   0.0000 
 48 H352     9.6680    -1.6150    24.8020 H     1 LIG   0.0000 
 49 H38     10.3520    -3.0410    22.4180 H     1 LIG   0.0000 
 50 H401     8.0610    -3.0540    24.1270 H     1 LIG   0.0000 
 51 H402     9.1660    -4.2530    24.0410 H     1 LIG   0.0000 
 52 H431     8.4790    -4.8660    21.9440 H     1 LIG   0.0000 
 53 H432     7.0980    -4.6420    22.7880 H     1 LIG   0.0000 
 54 H491     6.3310    -2.4470    18.9100 H     1 LIG   0.0000 
 55 H492     4.8060    -2.6220    19.4670 H     1 LIG   0.0000 
 56 H531     7.6100    -1.2690    20.7890 H     1 LIG   0.0000 
 57 H532     8.8800    -2.2000    20.3580 H     1 LIG   0.0000 
 58 H561     9.6990    -0.8280    21.9940 H     1 LIG   0.0000 
 59 H562     8.3770    -1.0380    22.9310 H     1 LIG   0.0000 
 60 H5       9.9470     2.5290    25.9760 H     1 LIG   0.0000 
 61 H19     10.0030     5.3150    21.7340 H     1 LIG   0.0000 
@<TRIPOS>BOND
  1   1   2  1   
  2   1  34  1   
  3   1  35  1   
  4   1  36  1   
  5   2   3  am  
  6   2  60  1   
  7   3   4  2   
  8   3   5  1   
  9   5   6  1   
 10   5  13  1   
 11   5  37  1   
 12   6   7  1   
 13   6  38  1   
 14   6  39  1   
 15   7   8  1   
 16   7  40  1   
 17   7  41  1   
 18   8   9  1   
 19   8  42  1   
 20   8  43  1   
 21   9  10  am  
 22   9  61  1   
 23  10  11  1   
 24  10  12  2   
 25  11  44  1   
 26  11  45  1   
 27  11  46  1   
 28  13  14  ar  
 29  13  29  ar  
 30  14  15  ar  
 31  14  30  1   
 32  15  16  ar  
 33  15  31  1   
 34  16  17  ar  
 35  16  32  1   
 36  17  18  1   
 37  17  29  ar  
 38  18  19  1   
 39  18  47  1   
 40  18  48  1   
 41  19  20  1   
 42  19  28  1   
 43  19  49  1   
 44  20  21  1   
 45  20  50  1   
 46  20  51  1   
 47  21  22  1   
 48  21  52  1   
 49  21  53  1   
 50  22  23  am  
 51  22  27  1   
 52  23  24  2   
 53  23  25  1   
 54  25  26  1   
 55  25  54  1   
 56  25  55  1   
 57  27  28  1   
 58  27  56  1   
 59  27  57  1   
 60  28  58  1   
 61  28  59  1   
 62  29  33  1   
@<TRIPOS>SUBSTRUCTURE
  1 LIG  29 GROUP 4 **** **** 0
@<TRIPOS>PROPERTY_DATA
index	|	ligand290
Name	|	MAK-UNK-176-2
ChemPlp	|	-98.8175
MM-GBSA Nwat=0	|	-23.428
STDEV0	|	3.0926
MM-GBSA Nwat=30	|	-64.4078
STDEV30	|	6.8282
MM-GBSA Nwat=60	|	-80.283
STDEV60	|	5.9801
ST.DEV < 10%	|	N
RMSD LIG < 2	|	
DIST < 5	|	
DIST < 3.5	|	N

# MOE 2019.01 (io_trps.svl 2018.10)

@<TRIPOS>MOLECULE
ligand281
53 55 1 0 0 
SMALL
NO_CHARGES


@<TRIPOS>ATOM
  1 C1       5.8810    -5.9330    21.3940 C.2   1 LIG   0.0000 
  2 H2       5.9410    -6.8170    21.8580 H     1 LIG   0.0000 
  3 H3       5.1600    -5.7700    20.7210 H     1 LIG   0.0000 
  4 C4       6.7390    -4.9960    21.6670 C.2   1 LIG   0.0000 
  5 H5       7.4600    -5.1590    22.3410 H     1 LIG   0.0000 
  6 C6       6.6470    -3.6520    20.9620 C.2   1 LIG   0.0000 
  7 O7       5.7960    -3.4640    20.1380 O.2   1 LIG   0.0000 
  8 N8       7.5370    -2.6560    21.2680 N.am  1 LIG   0.0000 
  9 H9       8.2470    -2.8130    21.9550 H     1 LIG   0.0000 
 10 C10      7.4480    -1.3570    20.5860 C.3   1 LIG   0.0000 
 11 H11      6.5330    -0.9740    20.7170 H     1 LIG   0.0000 
 12 H12      7.6210    -1.4800    19.6100 H     1 LIG   0.0000 
 13 C13      8.4830    -0.4070    21.1690 C.ar  1 LIG   0.0000 
 14 C14      9.6250    -0.9260    21.7700 C.ar  1 LIG   0.0000 
 15 H15      9.7620    -1.9150    21.8190 H     1 LIG   0.0000 
 16 C16     10.5760    -0.0620    22.3030 C.ar  1 LIG   0.0000 
 17 H17     11.4000    -0.4260    22.7380 H     1 LIG   0.0000 
 18 C18     10.3710     1.3120    22.2270 C.ar  1 LIG   0.0000 
 19 C19     11.3600     2.2170    22.7800 C.2   1 LIG   0.0000 
 20 O20     12.2170     1.7980    23.5080 O.2   1 LIG   0.0000 
 21 N21     11.3150     3.5510    22.4720 N.am  1 LIG   0.0000 
 22 H22     10.6010     3.9010    21.8650 H     1 LIG   0.0000 
 23 C23     12.3170     4.4690    23.0320 C.3   1 LIG   0.0000 
 24 H24     12.7450     4.9880    22.2920 H     1 LIG   0.0000 
 25 H25     13.0150     3.9440    23.5190 H     1 LIG   0.0000 
 26 C26     11.6400     5.4290    23.9980 C.ar  1 LIG   0.0000 
 27 C27     12.2910     5.7730    25.1790 C.ar  1 LIG   0.0000 
 28 H28     13.1910     5.3900    25.3870 H     1 LIG   0.0000 
 29 C29     11.6830     6.6530    26.0680 C.ar  1 LIG   0.0000 
 30 C30     12.3990     7.0260    27.3570 C.3   1 LIG   0.0000 
 31 H31     13.2790     6.5530    27.3980 H     1 LIG   0.0000 
 32 H32     12.5500     8.0140    27.3800 H     1 LIG   0.0000 
 33 H33     11.8380     6.7560    28.1400 H     1 LIG   0.0000 
 34 C34     10.4310     7.1690    25.7510 C.ar  1 LIG   0.0000 
 35 H35      9.9910     7.8020    26.3890 H     1 LIG   0.0000 
 36 C36      9.7740     6.8320    24.5720 C.ar  1 LIG   0.0000 
 37 C37      8.5480     7.1440    23.9370 C.2   1 LIG   0.0000 
 38 C38      7.4860     8.0800    24.4910 C.3   1 LIG   0.0000 
 39 H39      6.7190     8.1300    23.8520 H     1 LIG   0.0000 
 40 H40      7.1640     7.7340    25.3720 H     1 LIG   0.0000 
 41 H41      7.8770     8.9920    24.6150 H     1 LIG   0.0000 
 42 C42      8.4650     6.4780    22.7500 C.2   1 LIG   0.0000 
 43 C43      7.3100     6.5470    21.7620 C.3   1 LIG   0.0000 
 44 H44      6.6020     7.1570    22.1180 H     1 LIG   0.0000 
 45 H45      7.6410     6.8960    20.8850 H     1 LIG   0.0000 
 46 H46      6.9260     5.6320    21.6320 H     1 LIG   0.0000 
 47 N47      9.6040     5.7480    22.6050 N.pl3 1 LIG   0.0000 
 48 H48      9.8280     5.1590    21.8280 H     1 LIG   0.0000 
 49 C49     10.3900     5.9600    23.7030 C.ar  1 LIG   0.0000 
 50 C50      9.2290     1.8310    21.6270 C.ar  1 LIG   0.0000 
 51 H51      9.0930     2.8210    21.5780 H     1 LIG   0.0000 
 52 C52      8.2780     0.9670    21.0950 C.ar  1 LIG   0.0000 
 53 H53      7.4530     1.3310    20.6630 H     1 LIG   0.0000 
@<TRIPOS>BOND
  1   1   2  1   
  2   1   3  1   
  3   1   4  2   
  4   4   5  1   
  5   4   6  1   
  6   6   7  2   
  7   6   8  am  
  8   8   9  1   
  9   8  10  1   
 10  10  11  1   
 11  10  12  1   
 12  10  13  1   
 13  13  14  ar  
 14  13  52  ar  
 15  14  15  1   
 16  14  16  ar  
 17  16  17  1   
 18  16  18  ar  
 19  18  19  1   
 20  18  50  ar  
 21  19  20  2   
 22  19  21  am  
 23  21  22  1   
 24  21  23  1   
 25  23  24  1   
 26  23  25  1   
 27  23  26  1   
 28  26  27  ar  
 29  26  49  ar  
 30  27  28  1   
 31  27  29  ar  
 32  29  30  1   
 33  29  34  ar  
 34  30  31  1   
 35  30  32  1   
 36  30  33  1   
 37  34  35  1   
 38  34  36  ar  
 39  36  37  1   
 40  36  49  ar  
 41  37  38  1   
 42  37  42  2   
 43  38  39  1   
 44  38  40  1   
 45  38  41  1   
 46  42  43  1   
 47  42  47  1   
 48  43  44  1   
 49  43  45  1   
 50  43  46  1   
 51  47  48  1   
 52  47  49  1   
 53  50  51  1   
 54  50  52  ar  
 55  52  53  1   
@<TRIPOS>SUBSTRUCTURE
  1 LIG  50 GROUP 4 **** **** 0
@<TRIPOS>PROPERTY_DATA
index	|	ligand281
Name	|	JUA-UNI-bc0-2
ChemPlp	|	-102.759
MM-GBSA Nwat=0	|	-35.9873
STDEV0	|	3.5962
MM-GBSA Nwat=30	|	-64.2777
STDEV30	|	6.4882
MM-GBSA Nwat=60	|	-74.9625
STDEV60	|	6.5583
ST.DEV < 10%	|	N
RMSD LIG < 2	|	
DIST < 5	|	
DIST < 3.5	|	N

# MOE 2019.01 (io_trps.svl 2018.10)

@<TRIPOS>MOLECULE
ligand555
64 67 1 0 0 
SMALL
NO_CHARGES


@<TRIPOS>ATOM
  1 C1      12.4380     4.0320    22.5950 C.1   1 LIG   0.0000 
  2 C3      12.1170     2.8860    22.6250 C.1   1 LIG   0.0000 
  3 C4      11.7060     1.4230    22.6630 C.ar  1 LIG   0.0000 
  4 N5      12.4390     0.5150    23.3240 N.ar  1 LIG   0.0000 
  5 C6      12.0620    -0.7720    23.3450 C.ar  1 LIG   0.0000 
  6 N8      10.9480    -1.1540    22.7040 N.ar  1 LIG   0.0000 
  7 C9      10.1810    -0.2780    22.0320 C.ar  1 LIG   0.0000 
  8 C10     10.5530     1.0430    21.9980 C.ar  1 LIG   0.0000 
  9 N11      9.6390     1.7390    21.2610 N.2   1 LIG   0.0000 
 10 C12      8.7290     0.8910    20.8480 C.2   1 LIG   0.0000 
 11 C13      7.5230     1.2470    19.9940 C.3   1 LIG   0.0000 
 12 C14      7.3660     0.2580    18.8480 C.3   1 LIG   0.0000 
 13 C17      6.1790     0.7200    18.0130 C.3   1 LIG   0.0000 
 14 C20      4.8780     0.7340    18.8050 C.3   1 LIG   0.0000 
 15 N23      5.0440     1.3650    20.1250 N.am  1 LIG   0.0000 
 16 C24      3.9630     2.0700    20.6660 C.2   1 LIG   0.0000 
 17 O25      4.0670     2.5970    21.7380 O.2   1 LIG   0.0000 
 18 C26      2.6570     2.1670    19.8940 C.3   1 LIG   0.0000 
 19 CL29     1.5200     3.2110    20.7800 Cl    1 LIG   0.0000 
 20 C30      6.2970     1.2870    20.8950 C.3   1 LIG   0.0000 
 21 N33      9.0340    -0.3570    21.3020 N.pl3 1 LIG   0.0000 
 22 C34      8.2550    -1.5780    21.0490 C.3   1 LIG   0.0000 
 23 C37      7.2820    -1.8050    22.1940 C.2   1 LIG   0.0000 
 24 O38      6.4440    -0.9830    22.4420 O.2   1 LIG   0.0000 
 25 C39      7.3710    -3.0740    23.0260 C.3   1 LIG   0.0000 
 26 C40      8.6470    -3.0500    23.8520 C.3   1 LIG   0.0000 
 27 C43      8.4440    -3.8600    25.1220 C.ar  1 LIG   0.0000 
 28 C44      9.5490    -4.2400    25.8760 C.ar  1 LIG   0.0000 
 29 C46      9.3680    -4.9810    27.0390 C.ar  1 LIG   0.0000 
 30 C48      8.0810    -5.3320    27.4340 C.ar  1 LIG   0.0000 
 31 O49      7.9010    -6.0520    28.5620 O.3   1 LIG   0.0000 
 32 C51      6.9720    -4.9550    26.6840 C.ar  1 LIG   0.0000 
 33 C53      7.1590    -4.2140    25.5220 C.ar  1 LIG   0.0000 
 34 N55      7.3850    -4.2440    22.1360 N.am  1 LIG   0.0000 
 35 C57      6.3860    -4.4150    21.2140 C.2   1 LIG   0.0000 
 36 C58      6.4010    -5.6250    20.2940 C.3   1 LIG   0.0000 
 37 O62      5.5000    -3.6100    21.1340 O.2   1 LIG   0.0000 
 38 H6      12.6120    -1.4460    23.8390 H     1 LIG   0.0000 
 39 H44     10.4700    -3.9820    25.5830 H     1 LIG   0.0000 
 40 H46     10.1570    -5.2590    27.5870 H     1 LIG   0.0000 
 41 H51      6.0510    -5.2140    26.9770 H     1 LIG   0.0000 
 42 H53      6.3700    -3.9360    24.9740 H     1 LIG   0.0000 
 43 H13      7.6640     2.1600    19.6090 H     1 LIG   0.0000 
 44 H141     7.1940    -0.6590    19.2080 H     1 LIG   0.0000 
 45 H142     8.1950     0.2470    18.2890 H     1 LIG   0.0000 
 46 H171     6.3620     1.6460    17.6810 H     1 LIG   0.0000 
 47 H172     6.0740     0.1020    17.2350 H     1 LIG   0.0000 
 48 H201     4.1910     1.2440    18.2880 H     1 LIG   0.0000 
 49 H202     4.5680    -0.2080    18.9330 H     1 LIG   0.0000 
 50 H261     2.8330     2.5570    18.9900 H     1 LIG   0.0000 
 51 H262     2.2610     1.2550    19.7920 H     1 LIG   0.0000 
 52 H301     6.2810     0.4570    21.4540 H     1 LIG   0.0000 
 53 H302     6.3600     2.0880    21.4900 H     1 LIG   0.0000 
 54 H341     8.8740    -2.3600    20.9770 H     1 LIG   0.0000 
 55 H342     7.7460    -1.4770    20.1940 H     1 LIG   0.0000 
 56 H39      6.5800    -3.1290    23.6360 H     1 LIG   0.0000 
 57 H401     9.3950    -3.4460    23.3200 H     1 LIG   0.0000 
 58 H402     8.8710    -2.1060    24.0920 H     1 LIG   0.0000 
 59 H581     7.2030    -6.1870    20.4950 H     1 LIG   0.0000 
 60 H582     5.5710    -6.1640    20.4380 H     1 LIG   0.0000 
 61 H583     6.4380    -5.3190    19.3420 H     1 LIG   0.0000 
 62 H55      8.1240    -4.9140    22.2030 H     1 LIG   0.0000 
 63 H1      12.7080     4.9940    22.5700 H     1 LIG   0.0000 
 64 H49      8.5420    -6.7820    28.7970 H     1 LIG   0.0000 
@<TRIPOS>BOND
  1   1   2  3   
  2   1  63  1   
  3   2   3  1   
  4   3   4  ar  
  5   3   8  ar  
  6   4   5  ar  
  7   5   6  ar  
  8   5  38  1   
  9   6   7  ar  
 10   7   8  ar  
 11   7  21  1   
 12   8   9  1   
 13   9  10  2   
 14  10  11  1   
 15  10  21  1   
 16  11  12  1   
 17  11  20  1   
 18  11  43  1   
 19  12  13  1   
 20  12  44  1   
 21  12  45  1   
 22  13  14  1   
 23  13  46  1   
 24  13  47  1   
 25  14  15  1   
 26  14  48  1   
 27  14  49  1   
 28  15  16  am  
 29  15  20  1   
 30  16  17  2   
 31  16  18  1   
 32  18  19  1   
 33  18  50  1   
 34  18  51  1   
 35  20  52  1   
 36  20  53  1   
 37  21  22  1   
 38  22  23  1   
 39  22  54  1   
 40  22  55  1   
 41  23  24  2   
 42  23  25  1   
 43  25  26  1   
 44  25  34  1   
 45  25  56  1   
 46  26  27  1   
 47  26  57  1   
 48  26  58  1   
 49  27  28  ar  
 50  27  33  ar  
 51  28  29  ar  
 52  28  39  1   
 53  29  30  ar  
 54  29  40  1   
 55  30  31  1   
 56  30  32  ar  
 57  31  64  1   
 58  32  33  ar  
 59  32  41  1   
 60  33  42  1   
 61  34  35  am  
 62  34  62  1   
 63  35  36  1   
 64  35  37  2   
 65  36  59  1   
 66  36  60  1   
 67  36  61  1   
@<TRIPOS>SUBSTRUCTURE
  1 LIG  23 GROUP 4 **** **** 0
@<TRIPOS>PROPERTY_DATA
index	|	ligand555
Name	|	SEL-UNI-49a-6
ChemPlp	|	-108.859
MM-GBSA Nwat=0	|	-35.6048
STDEV0	|	3.3115
MM-GBSA Nwat=30	|	-63.0789
STDEV30	|	6.4509
MM-GBSA Nwat=60	|	-70.4391
STDEV60	|	6.0396
ST.DEV < 10%	|	N
RMSD LIG < 2	|	
DIST < 5	|	
DIST < 3.5	|	N

# MOE 2019.01 (io_trps.svl 2018.10)

@<TRIPOS>MOLECULE
ligand599
52 54 1 0 0 
SMALL
USER_CHARGES


@<TRIPOS>ATOM
  1 C1      12.7970     5.2550    21.2380 C.3   1 LIG   0.0000 
  2 C5      13.5050     6.0690    22.3080 C.2   1 LIG   0.0000 
  3 O6      14.2000     6.9960    21.9960 O.2   1 LIG   0.0000 
  4 N7      13.3500     5.7440    23.6300 N.am  1 LIG   0.0000 
  5 C9      12.4980     4.6090    24.0130 C.3   1 LIG   0.0000 
  6 C12     13.1170     3.3170    23.5050 C.3   1 LIG   0.0000 
  7 C15     12.2160     2.1470    23.8650 C.2   1 LIG   0.0000 
  8 C16     11.1370     2.2060    24.6970 C.2   1 LIG   0.0000 
  9 N18     10.5940     0.9560    24.7620 N.pl3 1 LIG   0.0000 
 10 C20     11.3280     0.1140    23.9750 C.ar  1 LIG   0.0000 
 11 C21     11.1450    -1.2460    23.7400 C.ar  1 LIG   0.0000 
 12 C22     10.0070    -2.0170    24.3890 C.3   1 LIG   0.0000 
 13 N25      9.4650    -2.9890    23.4280 N.4   1 LIG   1.0000 
 14 C26      8.5220    -3.8450    24.1680 C.3   1 LIG   0.0000 
 15 C29      7.8550    -4.8700    23.2630 C.3   1 LIG   0.0000 
 16 N32      7.3900    -4.2590    22.0080 N.am  1 LIG   0.0000 
 17 C33      6.2350    -4.7720    21.4040 C.2   1 LIG   0.0000 
 18 O34      5.8310    -4.2940    20.3800 O.2   1 LIG   0.0000 
 19 C35      5.4940    -5.9320    22.0460 C.3   1 LIG   0.0000 
 20 CL38     4.2880    -5.3040    23.1950 Cl    1 LIG   0.0000 
 21 C39      8.0820    -3.1260    21.3720 C.3   1 LIG   0.0000 
 22 C42      8.7410    -2.2200    22.4020 C.3   1 LIG   0.0000 
 23 C45     12.0180    -1.9230    22.8960 C.ar  1 LIG   0.0000 
 24 C47     13.0680    -1.2420    22.2890 C.ar  1 LIG   0.0000 
 25 F48     13.8910    -1.9130    21.4890 F     1 LIG   0.0000 
 26 C49     13.2160     0.1190    22.5490 C.ar  1 LIG   0.0000 
 27 C51     12.3560     0.8230    23.3900 C.ar  1 LIG   0.0000 
 28 H16     10.8040     3.0190    25.1740 H     1 LIG   0.0000 
 29 H18      9.7910     0.6980    25.2990 H     1 LIG   0.0000 
 30 H45     11.8910    -2.9000    22.7250 H     1 LIG   0.0000 
 31 H49     13.9700     0.6110    22.1140 H     1 LIG   0.0000 
 32 H11     12.2640     4.5270    21.6700 H     1 LIG   0.0000 
 33 H12     12.1860     5.8500    20.7160 H     1 LIG   0.0000 
 34 H13     13.4740     4.8520    20.6220 H     1 LIG   0.0000 
 35 H91     11.5890     4.7230    23.6110 H     1 LIG   0.0000 
 36 H92     12.4200     4.5720    25.0090 H     1 LIG   0.0000 
 37 H121    13.2200     3.3650    22.5110 H     1 LIG   0.0000 
 38 H122    14.0140     3.1890    23.9270 H     1 LIG   0.0000 
 39 H221    10.3490    -2.5000    25.1950 H     1 LIG   0.0000 
 40 H222     9.2860    -1.3810    24.6620 H     1 LIG   0.0000 
 41 H25     10.1960    -3.5330    23.0180 H     1 LIG   0.0000 
 42 H261     7.8160    -3.2680    24.5790 H     1 LIG   0.0000 
 43 H262     9.0210    -4.3270    24.8890 H     1 LIG   0.0000 
 44 H291     8.5130    -5.5910    23.0490 H     1 LIG   0.0000 
 45 H292     7.0710    -5.2650    23.7420 H     1 LIG   0.0000 
 46 H351     5.0320    -6.4660    21.3370 H     1 LIG   0.0000 
 47 H352     6.1440    -6.5160    22.5320 H     1 LIG   0.0000 
 48 H391     7.4180    -2.5930    20.8490 H     1 LIG   0.0000 
 49 H392     8.7850    -3.4810    20.7550 H     1 LIG   0.0000 
 50 H421     9.3870    -1.6160    21.9350 H     1 LIG   0.0000 
 51 H422     8.0340    -1.6710    22.8480 H     1 LIG   0.0000 
 52 H7      13.8160     6.2790    24.3350 H     1 LIG   0.0000 
@<TRIPOS>BOND
  1   1   2  1   
  2   1  32  1   
  3   1  33  1   
  4   1  34  1   
  5   2   3  2   
  6   2   4  am  
  7   4   5  1   
  8   4  52  1   
  9   5   6  1   
 10   5  35  1   
 11   5  36  1   
 12   6   7  1   
 13   6  37  1   
 14   6  38  1   
 15   7   8  2   
 16   7  27  1   
 17   8   9  1   
 18   8  28  1   
 19   9  10  1   
 20   9  29  1   
 21  10  11  ar  
 22  10  27  ar  
 23  11  12  1   
 24  11  23  ar  
 25  12  13  1   
 26  12  39  1   
 27  12  40  1   
 28  13  14  1   
 29  13  22  1   
 30  13  41  1   
 31  14  15  1   
 32  14  42  1   
 33  14  43  1   
 34  15  16  1   
 35  15  44  1   
 36  15  45  1   
 37  16  17  am  
 38  16  21  1   
 39  17  18  2   
 40  17  19  1   
 41  19  20  1   
 42  19  46  1   
 43  19  47  1   
 44  21  22  1   
 45  21  48  1   
 46  21  49  1   
 47  22  50  1   
 48  22  51  1   
 49  23  24  ar  
 50  23  30  1   
 51  24  25  1   
 52  24  26  ar  
 53  26  27  ar  
 54  26  31  1   
@<TRIPOS>SUBSTRUCTURE
  1 LIG  11 GROUP 4 **** **** 0
@<TRIPOS>PROPERTY_DATA
index	|	ligand599
Name	|	STU-CHA-bc0-1
ChemPlp	|	-98.0782
MM-GBSA Nwat=0	|	-27.1374
STDEV0	|	5.3302
MM-GBSA Nwat=30	|	-62.6325
STDEV30	|	7.8262
MM-GBSA Nwat=60	|	-70.1197
STDEV60	|	5.8232
ST.DEV < 10%	|	N
RMSD LIG < 2	|	
DIST < 5	|	
DIST < 3.5	|	N

# MOE 2019.01 (io_trps.svl 2018.10)

@<TRIPOS>MOLECULE
ligand279
52 54 1 0 0 
SMALL
USER_CHARGES


@<TRIPOS>ATOM
  1 C1      13.1140     6.0770    21.9960 C.3   1 LIG   0.0000 
  2 C5      13.9000     5.1680    22.9260 C.2   1 LIG   0.0000 
  3 O6      14.8610     5.5900    23.5070 O.2   1 LIG   0.0000 
  4 N7      13.5110     3.8660    23.1020 N.am  1 LIG   0.0000 
  5 C9      12.3330     3.3490    22.3900 C.3   1 LIG   0.0000 
  6 C12     11.1960     3.1390    23.3770 C.3   1 LIG   0.0000 
  7 C15     11.6210     2.1300    24.4320 C.3   1 LIG   0.0000 
  8 C16     10.4050     1.8460    25.2940 C.2   1 LIG   0.0000 
  9 N18     10.1090     0.6200    25.1890 N.2   1 LIG   0.0000 
 10 C19     10.9600    -0.0840    24.3200 C.ar  1 LIG   0.0000 
 11 C20     10.9720    -1.4220    23.9450 C.ar  1 LIG   0.0000 
 12 C21      9.9350    -2.3760    24.5160 C.3   1 LIG   0.0000 
 13 N24      9.4110    -3.2310    23.4410 N.4   1 LIG   1.0000 
 14 C25      8.4890    -4.1930    24.0670 C.3   1 LIG   0.0000 
 15 C28      7.8420    -5.1090    23.0400 C.3   1 LIG   0.0000 
 16 N31      7.3610    -4.3560    21.8710 N.am  1 LIG   0.0000 
 17 C32      6.2170    -4.8130    21.2060 C.2   1 LIG   0.0000 
 18 O33      5.8010    -4.2200    20.2500 O.2   1 LIG   0.0000 
 19 C34      5.5000    -6.0610    21.6970 C.3   1 LIG   0.0000 
 20 CL37     4.3060    -5.6100    22.9380 Cl    1 LIG   0.0000 
 21 C38      8.0290    -3.1380    21.3830 C.3   1 LIG   0.0000 
 22 C41      8.6700    -2.3550    22.5190 C.3   1 LIG   0.0000 
 23 C44     11.9180    -1.8900    23.0410 C.ar  1 LIG   0.0000 
 24 C46     12.8570    -1.0020    22.5240 C.ar  1 LIG   0.0000 
 25 F47     13.7660    -1.4350    21.6560 F     1 LIG   0.0000 
 26 C48     12.8600     0.3340    22.9060 C.ar  1 LIG   0.0000 
 27 C50     11.9060     0.7780    23.8150 C.ar  1 LIG   0.0000 
 28 H44     11.9240    -2.8510    22.7660 H     1 LIG   0.0000 
 29 H48     13.5400     0.9660    22.5340 H     1 LIG   0.0000 
 30 H11     12.3510     5.5680    21.5980 H     1 LIG   0.0000 
 31 H12     12.7610     6.8580    22.5120 H     1 LIG   0.0000 
 32 H13     13.7130     6.4050    21.2650 H     1 LIG   0.0000 
 33 H91     12.5620     2.4780    21.9560 H     1 LIG   0.0000 
 34 H92     12.0500     4.0060    21.6910 H     1 LIG   0.0000 
 35 H121    10.9730     4.0080    23.8190 H     1 LIG   0.0000 
 36 H122    10.3920     2.7960    22.8920 H     1 LIG   0.0000 
 37 H15     12.3920     2.4610    24.9740 H     1 LIG   0.0000 
 38 H211    10.3590    -2.9470    25.2190 H     1 LIG   0.0000 
 39 H212     9.1860    -1.8520    24.9200 H     1 LIG   0.0000 
 40 H24     10.1540    -3.7040    22.9660 H     1 LIG   0.0000 
 41 H251     7.7710    -3.6870    24.5460 H     1 LIG   0.0000 
 42 H252     8.9980    -4.7500    24.7220 H     1 LIG   0.0000 
 43 H281     8.5140    -5.7840    22.7370 H     1 LIG   0.0000 
 44 H282     7.0670    -5.5780    23.4650 H     1 LIG   0.0000 
 45 H341     5.0340    -6.5010    20.9290 H     1 LIG   0.0000 
 46 H342     6.1660    -6.6950    22.0900 H     1 LIG   0.0000 
 47 H381     7.3520    -2.5570    20.9300 H     1 LIG   0.0000 
 48 H382     8.7380    -3.3980    20.7270 H     1 LIG   0.0000 
 49 H411     9.3020    -1.6840    22.1320 H     1 LIG   0.0000 
 50 H412     7.9530    -1.8810    23.0300 H     1 LIG   0.0000 
 51 H7      14.0280     3.2680    23.7140 H     1 LIG   0.0000 
 52 H16      9.9180     2.5160    25.8540 H     1 LIG   0.0000 
@<TRIPOS>BOND
  1   1   2  1   
  2   1  30  1   
  3   1  31  1   
  4   1  32  1   
  5   2   3  2   
  6   2   4  am  
  7   4   5  1   
  8   4  51  1   
  9   5   6  1   
 10   5  33  1   
 11   5  34  1   
 12   6   7  1   
 13   6  35  1   
 14   6  36  1   
 15   7   8  1   
 16   7  27  1   
 17   7  37  1   
 18   8   9  2   
 19   8  52  1   
 20   9  10  1   
 21  10  11  ar  
 22  10  27  ar  
 23  11  12  1   
 24  11  23  ar  
 25  12  13  1   
 26  12  38  1   
 27  12  39  1   
 28  13  14  1   
 29  13  22  1   
 30  13  40  1   
 31  14  15  1   
 32  14  41  1   
 33  14  42  1   
 34  15  16  1   
 35  15  43  1   
 36  15  44  1   
 37  16  17  am  
 38  16  21  1   
 39  17  18  2   
 40  17  19  1   
 41  19  20  1   
 42  19  45  1   
 43  19  46  1   
 44  21  22  1   
 45  21  47  1   
 46  21  48  1   
 47  22  49  1   
 48  22  50  1   
 49  23  24  ar  
 50  23  28  1   
 51  24  25  1   
 52  24  26  ar  
 53  26  27  ar  
 54  26  29  1   
@<TRIPOS>SUBSTRUCTURE
  1 LIG  11 GROUP 4 **** **** 0
@<TRIPOS>PROPERTY_DATA
index	|	ligand279
Name	|	JOO-PER-d7a-1
ChemPlp	|	-98.6629
MM-GBSA Nwat=0	|	-42.2821
STDEV0	|	7.4732
MM-GBSA Nwat=30	|	-62.2851
STDEV30	|	6.394
MM-GBSA Nwat=60	|	-64.0161
STDEV60	|	6.3904
ST.DEV < 10%	|	N
RMSD LIG < 2	|	
DIST < 5	|	
DIST < 3.5	|	N

# MOE 2019.01 (io_trps.svl 2018.10)

@<TRIPOS>MOLECULE
ligand123
47 48 1 0 0 
SMALL
NO_CHARGES


@<TRIPOS>ATOM
  1 C1       6.9920    -5.7670    20.8320 C.3   1 LIG   0.0000 
  2 C5       6.3370    -4.4550    21.2320 C.2   1 LIG   0.0000 
  3 O6       5.1490    -4.4020    21.3940 O.2   1 LIG   0.0000 
  4 N7       7.1030    -3.3320    21.4060 N.am  1 LIG   0.0000 
  5 C9       6.4690    -2.0630    21.7930 C.3   1 LIG   0.0000 
  6 C10      7.3030    -1.3890    22.8700 C.2   1 LIG   0.0000 
  7 C12      8.4600    -1.8810    23.2000 C.2   1 LIG   0.0000 
  8 C14      9.2930    -1.2060    24.2780 C.3   1 LIG   0.0000 
  9 N15      9.5610    -2.1640    25.3610 N.am  1 LIG   0.0000 
 10 C17      8.5220    -2.8100    25.9770 C.2   1 LIG   0.0000 
 11 O18      7.3930    -2.5940    25.6320 O.2   1 LIG   0.0000 
 12 C19      8.7990    -3.8000    27.0960 C.3   1 LIG   0.0000 
 13 CL22     9.9490    -5.0330    26.5270 Cl    1 LIG   0.0000 
 14 C23     10.6090    -0.7360    23.6810 C.ar  1 LIG   0.0000 
 15 C24     11.4140    -1.6300    22.9820 C.ar  1 LIG   0.0000 
 16 C26     12.6150    -1.1820    22.4420 C.ar  1 LIG   0.0000 
 17 C28     13.0150     0.1420    22.5930 C.ar  1 LIG   0.0000 
 18 C30     12.1960     1.0200    23.2960 C.ar  1 LIG   0.0000 
 19 CL31    12.7010     2.7150    23.4940 Cl    1 LIG   0.0000 
 20 C32     10.9910     0.5920    23.8440 C.ar  1 LIG   0.0000 
 21 C34      6.3780    -1.1520    20.5790 C.ar  1 LIG   0.0000 
 22 C35      5.8970    -1.6610    19.3770 C.ar  1 LIG   0.0000 
 23 C37      5.8110    -0.8310    18.2640 C.ar  1 LIG   0.0000 
 24 C39      6.2070     0.4990    18.3680 C.ar  1 LIG   0.0000 
 25 O40      6.1250     1.3080    17.2910 O.3   1 LIG   0.0000 
 26 C42      6.6880     1.0120    19.5680 C.ar  1 LIG   0.0000 
 27 C44      6.7720     0.1780    20.6780 C.ar  1 LIG   0.0000 
 28 H24     11.1330    -2.5830    22.8700 H     1 LIG   0.0000 
 29 H26     13.1980    -1.8200    21.9380 H     1 LIG   0.0000 
 30 H28     13.8800     0.4580    22.2020 H     1 LIG   0.0000 
 31 H32     10.4080     1.2300    24.3470 H     1 LIG   0.0000 
 32 H35      5.6150    -2.6180    19.3130 H     1 LIG   0.0000 
 33 H37      5.4670    -1.1870    17.3950 H     1 LIG   0.0000 
 34 H42      6.9710     1.9690    19.6320 H     1 LIG   0.0000 
 35 H44      7.1160     0.5340    21.5470 H     1 LIG   0.0000 
 36 H11      7.9780    -5.6330    20.7400 H     1 LIG   0.0000 
 37 H12      6.8130    -6.4560    21.5340 H     1 LIG   0.0000 
 38 H13      6.6140    -6.0750    19.9590 H     1 LIG   0.0000 
 39 H9       5.5510    -2.2430    22.1450 H     1 LIG   0.0000 
 40 H14      8.7930    -0.4210    24.6430 H     1 LIG   0.0000 
 41 H191     9.1890    -3.3160    27.8800 H     1 LIG   0.0000 
 42 H192     7.9440    -4.2420    27.3700 H     1 LIG   0.0000 
 43 H7       8.0920    -3.3760    21.2710 H     1 LIG   0.0000 
 44 H10      6.9600    -0.5670    23.3260 H     1 LIG   0.0000 
 45 H12      8.8020    -2.7020    22.7450 H     1 LIG   0.0000 
 46 H15     10.5020    -2.3430    25.6480 H     1 LIG   0.0000 
 47 H40      5.2370     1.4900    16.8690 H     1 LIG   0.0000 
@<TRIPOS>BOND
  1   1   2  1   
  2   1  36  1   
  3   1  37  1   
  4   1  38  1   
  5   2   3  2   
  6   2   4  am  
  7   4   5  1   
  8   4  43  1   
  9   5   6  1   
 10   5  21  1   
 11   5  39  1   
 12   6   7  2   
 13   6  44  1   
 14   7   8  1   
 15   7  45  1   
 16   8   9  1   
 17   8  14  1   
 18   8  40  1   
 19   9  10  am  
 20   9  46  1   
 21  10  11  2   
 22  10  12  1   
 23  12  13  1   
 24  12  41  1   
 25  12  42  1   
 26  14  15  ar  
 27  14  20  ar  
 28  15  16  ar  
 29  15  28  1   
 30  16  17  ar  
 31  16  29  1   
 32  17  18  ar  
 33  17  30  1   
 34  18  19  1   
 35  18  20  ar  
 36  20  31  1   
 37  21  22  ar  
 38  21  27  ar  
 39  22  23  ar  
 40  22  32  1   
 41  23  24  ar  
 42  23  33  1   
 43  24  25  1   
 44  24  26  ar  
 45  25  47  1   
 46  26  27  ar  
 47  26  34  1   
 48  27  35  1   
@<TRIPOS>SUBSTRUCTURE
  1 LIG   7 GROUP 4 **** **** 0
@<TRIPOS>PROPERTY_DATA
index	|	ligand123
Name	|	DAV-CRI-25b-2
ChemPlp	|	-99.3876
MM-GBSA Nwat=0	|	-22.2164
STDEV0	|	3.2978
MM-GBSA Nwat=30	|	-61.7869
STDEV30	|	6.3929
MM-GBSA Nwat=60	|	-66.7591
STDEV60	|	6.4039
ST.DEV < 10%	|	N
RMSD LIG < 2	|	
DIST < 5	|	
DIST < 3.5	|	N

# MOE 2019.01 (io_trps.svl 2018.10)

@<TRIPOS>MOLECULE
ligand293
65 68 1 0 0 
SMALL
USER_CHARGES


@<TRIPOS>ATOM
  1 O1      10.4070     4.4880    24.9410 O.2   1 LIG   0.0000 
  2 C2      10.2400     4.5890    23.7570 C.2   1 LIG   0.0000 
  3 C3       9.0610     5.3850    23.2210 C.3   1 LIG   0.0000 
  4 N6       8.3040     4.5590    22.2690 N.4   1 LIG   1.0000 
  5 C9       7.9600     3.2770    22.8990 C.3   1 LIG   0.0000 
  6 C12      7.9110     2.1880    21.8380 C.2   1 LIG   0.0000 
  7 C13      8.9530     1.3810    21.4950 C.2   1 LIG   0.0000 
  8 N15      8.4950     0.5530    20.5140 N.pl3 1 LIG   0.0000 
  9 C17      7.1890     0.8250    20.2370 C.ar  1 LIG   0.0000 
 10 C18      6.3220     0.2410    19.3180 C.ar  1 LIG   0.0000 
 11 C20      5.0130     0.6920    19.2020 C.ar  1 LIG   0.0000 
 12 C22      4.5790     1.7360    20.0140 C.ar  1 LIG   0.0000 
 13 F23      3.3240     2.1680    19.8930 F     1 LIG   0.0000 
 14 C24      5.4700     2.2970    20.9260 C.ar  1 LIG   0.0000 
 15 C26      6.7840     1.8510    21.0540 C.ar  1 LIG   0.0000 
 16 N27     11.1120     3.9860    22.8890 N.am  1 LIG   0.0000 
 17 C29     12.2510     3.2160    23.4070 C.3   1 LIG   0.0000 
 18 C32     11.8670     1.7490    23.5090 C.ar  1 LIG   0.0000 
 19 C33     12.3960     0.8390    22.5990 C.ar  1 LIG   0.0000 
 20 C35     12.0490    -0.5050    22.6880 C.ar  1 LIG   0.0000 
 21 C37     11.1770    -0.9220    23.6880 C.ar  1 LIG   0.0000 
 22 C38     10.7950    -2.3900    23.7910 C.3   1 LIG   0.0000 
 23 N41      9.3720    -2.5500    23.4580 N.4   1 LIG   1.0000 
 24 C43      9.2350    -2.2860    22.0160 C.3   1 LIG   0.0000 
 25 C46      7.8020    -2.4680    21.5390 C.3   1 LIG   0.0000 
 26 N49      7.2100    -3.7060    22.0710 N.am  1 LIG   0.0000 
 27 C50      6.2730    -4.3880    21.2870 C.2   1 LIG   0.0000 
 28 O51      5.9700    -3.9610    20.2070 O.2   1 LIG   0.0000 
 29 C52      5.6390    -5.6690    21.8030 C.3   1 LIG   0.0000 
 30 CL55     6.9080    -6.7490    22.4290 Cl    1 LIG   0.0000 
 31 C56      7.5730    -4.2570    23.3870 C.3   1 LIG   0.0000 
 32 C59      9.0200    -3.9510    23.7450 C.3   1 LIG   0.0000 
 33 C62     10.6470    -0.0130    24.5970 C.ar  1 LIG   0.0000 
 34 C64     10.9930     1.3310    24.5070 C.ar  1 LIG   0.0000 
 35 H13      9.8730     1.3940    21.8860 H     1 LIG   0.0000 
 36 H15      9.0400    -0.1540    20.0630 H     1 LIG   0.0000 
 37 H18      6.6440    -0.5070    18.7390 H     1 LIG   0.0000 
 38 H20      4.3900     0.2710    18.5430 H     1 LIG   0.0000 
 39 H24      5.1550     3.0460    21.5100 H     1 LIG   0.0000 
 40 H33     13.0230     1.1500    21.8840 H     1 LIG   0.0000 
 41 H35     12.4240    -1.1660    22.0380 H     1 LIG   0.0000 
 42 H62     10.0200    -0.3240    25.3120 H     1 LIG   0.0000 
 43 H64     10.6160     1.9930    25.1560 H     1 LIG   0.0000 
 44 H31      8.4660     5.6500    23.9800 H     1 LIG   0.0000 
 45 H32      9.3960     6.2050    22.7580 H     1 LIG   0.0000 
 46 H61      8.8620     4.3920    21.4560 H     1 LIG   0.0000 
 47 H62      7.4660     5.0370    22.0060 H     1 LIG   0.0000 
 48 H91      7.0660     3.3520    23.3410 H     1 LIG   0.0000 
 49 H92      8.6520     3.0450    23.5830 H     1 LIG   0.0000 
 50 H291    12.5010     3.5590    24.3130 H     1 LIG   0.0000 
 51 H292    13.0300     3.3150    22.7870 H     1 LIG   0.0000 
 52 H381    11.3490    -2.9240    23.1520 H     1 LIG   0.0000 
 53 H382    10.9580    -2.7120    24.7230 H     1 LIG   0.0000 
 54 H41      8.8070    -1.9220    23.9920 H     1 LIG   0.0000 
 55 H431     9.8260    -2.9180    21.5140 H     1 LIG   0.0000 
 56 H432     9.5200    -1.3450    21.8310 H     1 LIG   0.0000 
 57 H461     7.2560    -1.6890    21.8460 H     1 LIG   0.0000 
 58 H462     7.7950    -2.5080    20.5400 H     1 LIG   0.0000 
 59 H521     4.9950    -5.4510    22.5370 H     1 LIG   0.0000 
 60 H522     5.1520    -6.1240    21.0570 H     1 LIG   0.0000 
 61 H561     7.4470    -5.2490    23.3680 H     1 LIG   0.0000 
 62 H562     6.9750    -3.8580    24.0820 H     1 LIG   0.0000 
 63 H591     9.1550    -4.1240    24.7210 H     1 LIG   0.0000 
 64 H592     9.6180    -4.5500    23.2140 H     1 LIG   0.0000 
 65 H27     10.9720     4.0710    21.9020 H     1 LIG   0.0000 
@<TRIPOS>BOND
  1   1   2  2   
  2   2   3  1   
  3   2  16  am  
  4   3   4  1   
  5   3  44  1   
  6   3  45  1   
  7   4   5  1   
  8   4  46  1   
  9   4  47  1   
 10   5   6  1   
 11   5  48  1   
 12   5  49  1   
 13   6   7  2   
 14   6  15  1   
 15   7   8  1   
 16   7  35  1   
 17   8   9  1   
 18   8  36  1   
 19   9  10  ar  
 20   9  15  ar  
 21  10  11  ar  
 22  10  37  1   
 23  11  12  ar  
 24  11  38  1   
 25  12  13  1   
 26  12  14  ar  
 27  14  15  ar  
 28  14  39  1   
 29  16  17  1   
 30  16  65  1   
 31  17  18  1   
 32  17  50  1   
 33  17  51  1   
 34  18  19  ar  
 35  18  34  ar  
 36  19  20  ar  
 37  19  40  1   
 38  20  21  ar  
 39  20  41  1   
 40  21  22  1   
 41  21  33  ar  
 42  22  23  1   
 43  22  52  1   
 44  22  53  1   
 45  23  24  1   
 46  23  32  1   
 47  23  54  1   
 48  24  25  1   
 49  24  55  1   
 50  24  56  1   
 51  25  26  1   
 52  25  57  1   
 53  25  58  1   
 54  26  27  am  
 55  26  31  1   
 56  27  28  2   
 57  27  29  1   
 58  29  30  1   
 59  29  59  1   
 60  29  60  1   
 61  31  32  1   
 62  31  61  1   
 63  31  62  1   
 64  32  63  1   
 65  32  64  1   
 66  33  34  ar  
 67  33  42  1   
 68  34  43  1   
@<TRIPOS>SUBSTRUCTURE
  1 LIG   7 GROUP 4 **** **** 0
@<TRIPOS>PROPERTY_DATA
index	|	ligand293
Name	|	MAK-UNK-176-5
ChemPlp	|	-109.34
MM-GBSA Nwat=0	|	-35.4257
STDEV0	|	4.5231
MM-GBSA Nwat=30	|	-60.2893
STDEV30	|	6.4147
MM-GBSA Nwat=60	|	-76.4168
STDEV60	|	6.8224
ST.DEV < 10%	|	N
RMSD LIG < 2	|	
DIST < 5	|	
DIST < 3.5	|	N

# MOE 2019.01 (io_trps.svl 2018.10)

@<TRIPOS>MOLECULE
ligand374
60 62 1 0 0 
SMALL
NO_CHARGES


@<TRIPOS>ATOM
  1 C1      12.8350     4.2220    22.8130 C.3   1 LIG   0.0000 
  2 C5      12.3770     2.7760    22.7240 C.3   1 LIG   0.0000 
  3 N8      11.3240     2.6570    21.7050 N.pl3 1 LIG   0.0000 
  4 C10     10.4500     1.5640    21.7260 C.ar  1 LIG   0.0000 
  5 C11     10.7270     0.5190    22.6030 C.ar  1 LIG   0.0000 
  6 C13      9.8670    -0.5740    22.6360 C.ar  1 LIG   0.0000 
  7 C15      8.7530    -0.6120    21.8050 C.ar  1 LIG   0.0000 
  8 C16      7.8200    -1.8120    21.8500 C.3   1 LIG   0.0000 
  9 O17      7.9520    -2.5350    23.0700 O.3   1 LIG   0.0000 
 10 C18      7.0690    -3.6480    23.1650 C.3   1 LIG   0.0000 
 11 O19      7.1820    -4.3140    24.4140 O.3   1 LIG   0.0000 
 12 C21      5.6100    -3.2630    22.9820 C.3   1 LIG   0.0000 
 13 N22      5.2060    -2.4610    24.1480 N.3   1 LIG   0.0000 
 14 C25      4.2030    -3.2010    24.9280 C.3   1 LIG   0.0000 
 15 N28      3.9900    -4.5220    24.3230 N.3   1 LIG   0.0000 
 16 C30      4.2660    -5.5210    25.3690 C.3   1 LIG   0.0000 
 17 C33      4.0420    -6.9380    24.8640 C.3   1 LIG   0.0000 
 18 N36      2.7790    -7.0500    24.1160 N.am  1 LIG   0.0000 
 19 C37      2.0700    -8.2550    24.1570 C.2   1 LIG   0.0000 
 20 O38      2.4930    -9.1790    24.7950 O.2   1 LIG   0.0000 
 21 C39      0.7630    -8.3940    23.3930 C.3   1 LIG   0.0000 
 22 CL42     0.9990    -7.8610    21.7110 Cl    1 LIG   0.0000 
 23 C43      2.2210    -5.9400    23.3280 C.3   1 LIG   0.0000 
 24 C46      2.5680    -4.5950    23.9510 C.3   1 LIG   0.0000 
 25 C49      5.4670    -2.5130    21.6640 C.3   1 LIG   0.0000 
 26 O50      5.7260    -3.4060    20.5880 O.3   1 LIG   0.0000 
 27 C52      6.4060    -1.3170    21.5890 C.3   1 LIG   0.0000 
 28 O53      6.0940    -0.3010    22.5300 O.3   1 LIG   0.0000 
 29 C55      8.5320     0.4650    20.9520 C.ar  1 LIG   0.0000 
 30 N57      9.3700     1.5110    20.9320 N.ar  1 LIG   0.0000 
 31 H11     11.5300     0.5540    23.1980 H     1 LIG   0.0000 
 32 H13     10.0510    -1.3340    23.2600 H     1 LIG   0.0000 
 33 H55      7.7370     0.4590    20.3460 H     1 LIG   0.0000 
 34 H11     13.5520     4.3030    23.5060 H     1 LIG   0.0000 
 35 H12     13.1950     4.5130    21.9270 H     1 LIG   0.0000 
 36 H13     12.0610     4.8030    23.0650 H     1 LIG   0.0000 
 37 H51     13.1510     2.1960    22.4730 H     1 LIG   0.0000 
 38 H52     12.0170     2.4850    23.6110 H     1 LIG   0.0000 
 39 H16      8.0720    -2.4250    21.1010 H     1 LIG   0.0000 
 40 H18      7.3100    -4.2980    22.4450 H     1 LIG   0.0000 
 41 H21      5.0540    -4.0940    22.9480 H     1 LIG   0.0000 
 42 H251     4.5280    -3.3140    25.8680 H     1 LIG   0.0000 
 43 H252     3.3420    -2.6930    24.9320 H     1 LIG   0.0000 
 44 H301     3.6600    -5.3530    26.1460 H     1 LIG   0.0000 
 45 H302     5.2180    -5.4280    25.6620 H     1 LIG   0.0000 
 46 H331     4.7990    -7.1930    24.2620 H     1 LIG   0.0000 
 47 H332     4.0130    -7.5610    25.6460 H     1 LIG   0.0000 
 48 H391     0.4720    -9.3510    23.4010 H     1 LIG   0.0000 
 49 H392     0.0620    -7.8280    23.8270 H     1 LIG   0.0000 
 50 H431     1.2260    -6.0340    23.2900 H     1 LIG   0.0000 
 51 H432     2.5960    -5.9770    22.4020 H     1 LIG   0.0000 
 52 H461     2.3680    -3.8710    23.2910 H     1 LIG   0.0000 
 53 H462     2.0110    -4.4630    24.7700 H     1 LIG   0.0000 
 54 H49      4.5260    -2.1850    21.5860 H     1 LIG   0.0000 
 55 H52      6.3630    -0.9290    20.6680 H     1 LIG   0.0000 
 56 H8      11.2330     3.3570    20.9970 H     1 LIG   0.0000 
 57 H22      4.8140    -1.5960    23.8380 H     1 LIG   0.0000 
 58 H19      7.4000    -5.2780    24.2600 H     1 LIG   0.0000 
 59 H50      5.8990    -2.8810    19.7540 H     1 LIG   0.0000 
 60 H53      5.1350    -0.3820    22.8020 H     1 LIG   0.0000 
@<TRIPOS>BOND
  1   1   2  1   
  2   1  34  1   
  3   1  35  1   
  4   1  36  1   
  5   2   3  1   
  6   2  37  1   
  7   2  38  1   
  8   3   4  1   
  9   3  56  1   
 10   4   5  ar  
 11   4  30  ar  
 12   5   6  ar  
 13   5  31  1   
 14   6   7  ar  
 15   6  32  1   
 16   7   8  1   
 17   7  29  ar  
 18   8   9  1   
 19   8  27  1   
 20   8  39  1   
 21   9  10  1   
 22  10  11  1   
 23  10  12  1   
 24  10  40  1   
 25  11  58  1   
 26  12  13  1   
 27  12  25  1   
 28  12  41  1   
 29  13  14  1   
 30  13  57  1   
 31  14  15  1   
 32  14  42  1   
 33  14  43  1   
 34  15  16  1   
 35  15  24  1   
 36  16  17  1   
 37  16  44  1   
 38  16  45  1   
 39  17  18  1   
 40  17  46  1   
 41  17  47  1   
 42  18  19  am  
 43  18  23  1   
 44  19  20  2   
 45  19  21  1   
 46  21  22  1   
 47  21  48  1   
 48  21  49  1   
 49  23  24  1   
 50  23  50  1   
 51  23  51  1   
 52  24  52  1   
 53  24  53  1   
 54  25  26  1   
 55  25  27  1   
 56  25  54  1   
 57  26  59  1   
 58  27  28  1   
 59  27  55  1   
 60  28  60  1   
 61  29  30  ar  
 62  29  33  1   
@<TRIPOS>SUBSTRUCTURE
  1 LIG  12 GROUP 4 **** **** 0
@<TRIPOS>PROPERTY_DATA
index	|	ligand374
Name	|	MAK-UNK-af8-30
ChemPlp	|	-92.5926
MM-GBSA Nwat=0	|	-33.9142
STDEV0	|	4.5716
MM-GBSA Nwat=30	|	-60.1126
STDEV30	|	6.0613
MM-GBSA Nwat=60	|	-69.4382
STDEV60	|	5.1938
ST.DEV < 10%	|	N
RMSD LIG < 2	|	
DIST < 5	|	
DIST < 3.5	|	N

# MOE 2019.01 (io_trps.svl 2018.10)

@<TRIPOS>MOLECULE
ligand600
55 57 1 0 0 
SMALL
NO_CHARGES


@<TRIPOS>ATOM
  1 N1      14.5250    -0.1200    23.3310 N.1   1 LIG   0.0000 
  2 C2      13.5030     0.3670    23.1960 C.1   1 LIG   0.0000 
  3 C3      12.1400     1.0160    23.0170 C.ar  1 LIG   0.0000 
  4 C4      11.7680     2.0690    23.8460 C.ar  1 LIG   0.0000 
  5 H5      12.3930     2.3950    24.5560 H     1 LIG   0.0000 
  6 C6      10.5220     2.6650    23.6840 C.ar  1 LIG   0.0000 
  7 H7      10.2490     3.4230    24.2760 H     1 LIG   0.0000 
  8 C8       9.6560     2.2080    22.6960 C.ar  1 LIG   0.0000 
  9 C9       8.3020     2.8820    22.5460 C.3   1 LIG   0.0000 
 10 H10      8.0250     2.8660    21.5850 H     1 LIG   0.0000 
 11 H11      7.6240     2.3950    23.0960 H     1 LIG   0.0000 
 12 N12      8.3950     4.2760    23.0050 N.am  1 LIG   0.0000 
 13 H13      9.0840     4.5350    23.6810 H     1 LIG   0.0000 
 14 C14      7.5360     5.2200    22.5070 C.2   1 LIG   0.0000 
 15 O15      6.7080     4.9100    21.6950 O.2   1 LIG   0.0000 
 16 N16      7.6250     6.5470    22.9440 N.am  1 LIG   0.0000 
 17 C17      6.6940     7.5470    22.3970 C.3   1 LIG   0.0000 
 18 H18      5.8510     7.0900    22.1160 H     1 LIG   0.0000 
 19 H19      7.1160     7.9870    21.6040 H     1 LIG   0.0000 
 20 C20      6.3620     8.6070    23.4360 C.3   1 LIG   0.0000 
 21 H21      5.9190     9.3800    22.9810 H     1 LIG   0.0000 
 22 H22      5.7380     8.2160    24.1120 H     1 LIG   0.0000 
 23 O23      7.5310     9.0700    24.0990 O.3   1 LIG   0.0000 
 24 C24      8.1290     8.0240    24.8540 C.3   1 LIG   0.0000 
 25 H25      7.4500     7.6530    25.4880 H     1 LIG   0.0000 
 26 H26      8.9000     8.3960    25.3710 H     1 LIG   0.0000 
 27 C27      8.6300     6.9030    23.9560 C.3   1 LIG   0.0000 
 28 H28      9.4660     7.2030    23.4960 H     1 LIG   0.0000 
 29 H29      8.8280     6.0990    24.5170 H     1 LIG   0.0000 
 30 C30     10.0360     1.1540    21.8700 C.ar  1 LIG   0.0000 
 31 C31      9.1130     0.6320    20.7820 C.3   1 LIG   0.0000 
 32 H32      8.5550     1.3830    20.4300 H     1 LIG   0.0000 
 33 H33      9.6580     0.2440    20.0390 H     1 LIG   0.0000 
 34 N34      8.2380    -0.4080    21.3400 N.3   1 LIG   0.0000 
 35 C35      7.3180    -0.8140    20.2650 C.3   1 LIG   0.0000 
 36 H36      7.8540    -1.1420    19.4870 H     1 LIG   0.0000 
 37 H37      6.7750    -0.0220    19.9870 H     1 LIG   0.0000 
 38 C38      6.3790    -1.9220    20.7190 C.3   1 LIG   0.0000 
 39 H39      5.6830    -1.5310    21.3210 H     1 LIG   0.0000 
 40 H40      5.9380    -2.3240    19.9170 H     1 LIG   0.0000 
 41 N41      7.1030    -2.9770    21.4470 N.am  1 LIG   0.0000 
 42 C42      6.6500    -4.2970    21.3570 C.2   1 LIG   0.0000 
 43 O43      5.6840    -4.5560    20.6940 O.2   1 LIG   0.0000 
 44 C44      7.3810    -5.4040    22.0990 C.3   1 LIG   0.0000 
 45 H45      7.9610    -5.9080    21.4590 H     1 LIG   0.0000 
 46 H46      7.9490    -5.0040    22.8190 H     1 LIG   0.0000 
 47 CL47     6.1960    -6.5140    22.8270 Cl    1 LIG   0.0000 
 48 C48      8.2950    -2.7040    22.2640 C.3   1 LIG   0.0000 
 49 H49      8.8700    -3.5220    22.2870 H     1 LIG   0.0000 
 50 H50      8.0080    -2.4720    23.1940 H     1 LIG   0.0000 
 51 C51      9.1010    -1.5470    21.6920 C.3   1 LIG   0.0000 
 52 H52      9.7700    -1.2490    22.3730 H     1 LIG   0.0000 
 53 H53      9.5780    -1.8580    20.8700 H     1 LIG   0.0000 
 54 C54     11.2810     0.5520    22.0260 C.ar  1 LIG   0.0000 
 55 H55     11.5540    -0.2050    21.4330 H     1 LIG   0.0000 
@<TRIPOS>BOND
  1   1   2  3   
  2   2   3  1   
  3   3   4  ar  
  4   3  54  ar  
  5   4   5  1   
  6   4   6  ar  
  7   6   7  1   
  8   6   8  ar  
  9   8   9  1   
 10   8  30  ar  
 11   9  10  1   
 12   9  11  1   
 13   9  12  1   
 14  12  13  1   
 15  12  14  am  
 16  14  15  2   
 17  14  16  am  
 18  16  17  1   
 19  16  27  1   
 20  17  18  1   
 21  17  19  1   
 22  17  20  1   
 23  20  21  1   
 24  20  22  1   
 25  20  23  1   
 26  23  24  1   
 27  24  25  1   
 28  24  26  1   
 29  24  27  1   
 30  27  28  1   
 31  27  29  1   
 32  30  31  1   
 33  30  54  ar  
 34  31  32  1   
 35  31  33  1   
 36  31  34  1   
 37  34  35  1   
 38  34  51  1   
 39  35  36  1   
 40  35  37  1   
 41  35  38  1   
 42  38  39  1   
 43  38  40  1   
 44  38  41  1   
 45  41  42  am  
 46  41  48  1   
 47  42  43  2   
 48  42  44  1   
 49  44  45  1   
 50  44  46  1   
 51  44  47  1   
 52  48  49  1   
 53  48  50  1   
 54  48  51  1   
 55  51  52  1   
 56  51  53  1   
 57  54  55  1   
@<TRIPOS>SUBSTRUCTURE
  1 LIG   8 GROUP 4 **** **** 0
@<TRIPOS>PROPERTY_DATA
index	|	ligand600
Name	|	TAM-UNI-d1c-1
ChemPlp	|	-92.0714
MM-GBSA Nwat=0	|	-35.544
STDEV0	|	3.0371
MM-GBSA Nwat=30	|	-57.9237
STDEV30	|	6.5463
MM-GBSA Nwat=60	|	-68.1889
STDEV60	|	6.263
ST.DEV < 10%	|	N
RMSD LIG < 2	|	
DIST < 5	|	
DIST < 3.5	|	N

# MOE 2019.01 (io_trps.svl 2018.10)

@<TRIPOS>MOLECULE
ligand084
53 56 1 0 0 
SMALL
NO_CHARGES


@<TRIPOS>ATOM
  1 C1       5.0720    -4.1930    22.9770 C.3   1 LIG   0.0000 
  2 C5       6.0970    -4.6580    21.9550 C.2   1 LIG   0.0000 
  3 O6       5.8390    -4.6130    20.7840 O.2   1 LIG   0.0000 
  4 N7       7.3140    -5.1300    22.3710 N.am  1 LIG   0.0000 
  5 C9       7.6290    -5.1860    23.8060 C.3   1 LIG   0.0000 
  6 C12      8.8360    -4.3070    24.0940 C.3   1 LIG   0.0000 
  7 C15      8.5910    -2.9130    23.5420 C.2   1 LIG   0.0000 
  8 C16      7.3720    -2.3140    23.4050 C.2   1 LIG   0.0000 
  9 N18      7.5740    -1.0750    22.8730 N.pl3 1 LIG   0.0000 
 10 C20      8.9150    -0.8900    22.6730 C.ar  1 LIG   0.0000 
 11 C21      9.5860     0.2090    22.1470 C.ar  1 LIG   0.0000 
 12 C22      8.8270     1.4500    21.7040 C.3   1 LIG   0.0000 
 13 C23      8.1860     2.0670    22.9400 C.3   1 LIG   0.0000 
 14 N26      7.4550     3.2530    22.4760 N.am  1 LIG   0.0000 
 15 C27      7.9000     4.5750    22.5940 C.2   1 LIG   0.0000 
 16 O28      8.9540     4.8090    23.1170 O.2   1 LIG   0.0000 
 17 C29      7.0470     5.7150    22.0600 C.3   1 LIG   0.0000 
 18 CL32     7.6010     7.2520    22.7670 Cl    1 LIG   0.0000 
 19 C33      6.1870     2.8580    21.8570 C.3   1 LIG   0.0000 
 20 C36      6.4970     1.8160    20.7920 C.ar  1 LIG   0.0000 
 21 C37      5.4970     1.5160    19.8660 C.ar  1 LIG   0.0000 
 22 C39      5.7190     0.5440    18.8960 C.ar  1 LIG   0.0000 
 23 C41      6.9300    -0.1380    18.8280 C.ar  1 LIG   0.0000 
 24 C43      7.9290     0.1670    19.7450 C.ar  1 LIG   0.0000 
 25 C45      7.7130     1.1390    20.7180 C.ar  1 LIG   0.0000 
 26 C46     10.9710     0.1870    22.0190 C.ar  1 LIG   0.0000 
 27 C48     11.6780    -0.9410    22.4200 C.ar  1 LIG   0.0000 
 28 CL49    13.4500    -0.9580    22.2460 Cl    1 LIG   0.0000 
 29 C50     10.9720    -2.0230    22.9430 C.ar  1 LIG   0.0000 
 30 C52      9.5840    -2.0180    23.0800 C.ar  1 LIG   0.0000 
 31 H16      6.4890    -2.7130    23.6510 H     1 LIG   0.0000 
 32 H18      6.8580    -0.4090    22.6630 H     1 LIG   0.0000 
 33 H46     11.4540     0.9770    21.6410 H     1 LIG   0.0000 
 34 H50     11.4810    -2.8340    23.2310 H     1 LIG   0.0000 
 35 H37      4.6220     1.9990    19.9000 H     1 LIG   0.0000 
 36 H39      4.9970     0.3320    18.2370 H     1 LIG   0.0000 
 37 H41      7.0790    -0.8380    18.1300 H     1 LIG   0.0000 
 38 H43      8.8050    -0.3120    19.7050 H     1 LIG   0.0000 
 39 H11      5.4480    -4.2990    23.8980 H     1 LIG   0.0000 
 40 H12      4.8530    -3.2310    22.8150 H     1 LIG   0.0000 
 41 H13      4.2420    -4.7430    22.8910 H     1 LIG   0.0000 
 42 H91      7.8340    -6.1290    24.0660 H     1 LIG   0.0000 
 43 H92      6.8450    -4.8580    24.3330 H     1 LIG   0.0000 
 44 H121     8.9810    -4.2540    25.0820 H     1 LIG   0.0000 
 45 H122     9.6460    -4.7000    23.6590 H     1 LIG   0.0000 
 46 H22      9.4640     2.1040    21.2950 H     1 LIG   0.0000 
 47 H231     7.5570     1.4160    23.3660 H     1 LIG   0.0000 
 48 H232     8.8900     2.3300    23.6010 H     1 LIG   0.0000 
 49 H291     7.1320     5.7560    21.0640 H     1 LIG   0.0000 
 50 H292     6.0910     5.5590    22.3070 H     1 LIG   0.0000 
 51 H331     5.7500     3.6540    21.4380 H     1 LIG   0.0000 
 52 H332     5.5780     2.4680    22.5470 H     1 LIG   0.0000 
 53 H7       7.9880    -5.4360    21.6990 H     1 LIG   0.0000 
@<TRIPOS>BOND
  1   1   2  1   
  2   1  39  1   
  3   1  40  1   
  4   1  41  1   
  5   2   3  2   
  6   2   4  am  
  7   4   5  1   
  8   4  53  1   
  9   5   6  1   
 10   5  42  1   
 11   5  43  1   
 12   6   7  1   
 13   6  44  1   
 14   6  45  1   
 15   7   8  2   
 16   7  30  1   
 17   8   9  1   
 18   8  31  1   
 19   9  10  1   
 20   9  32  1   
 21  10  11  ar  
 22  10  30  ar  
 23  11  12  1   
 24  11  26  ar  
 25  12  13  1   
 26  12  25  1   
 27  12  46  1   
 28  13  14  1   
 29  13  47  1   
 30  13  48  1   
 31  14  15  am  
 32  14  19  1   
 33  15  16  2   
 34  15  17  1   
 35  17  18  1   
 36  17  49  1   
 37  17  50  1   
 38  19  20  1   
 39  19  51  1   
 40  19  52  1   
 41  20  21  ar  
 42  20  25  ar  
 43  21  22  ar  
 44  21  35  1   
 45  22  23  ar  
 46  22  36  1   
 47  23  24  ar  
 48  23  37  1   
 49  24  25  ar  
 50  24  38  1   
 51  26  27  ar  
 52  26  33  1   
 53  27  28  1   
 54  27  29  ar  
 55  29  30  ar  
 56  29  34  1   
@<TRIPOS>SUBSTRUCTURE
  1 LIG  10 GROUP 4 **** **** 0
@<TRIPOS>PROPERTY_DATA
index	|	ligand084
Name	|	DAR-DIA-cab-5
ChemPlp	|	-95.1946
MM-GBSA Nwat=0	|	-25.5427
STDEV0	|	2.791
MM-GBSA Nwat=30	|	-57.6839
STDEV30	|	5.9611
MM-GBSA Nwat=60	|	-65.5051
STDEV60	|	6.2282
ST.DEV < 10%	|	N
RMSD LIG < 2	|	
DIST < 5	|	
DIST < 3.5	|	N

# MOE 2019.01 (io_trps.svl 2018.10)

@<TRIPOS>MOLECULE
ligand020
52 54 1 0 0 
SMALL
NO_CHARGES


@<TRIPOS>ATOM
  1 C1       4.6020    -6.1340    26.7670 C.2   1 LIG   0.0000 
  2 H2       4.3730    -7.0060    27.1990 H     1 LIG   0.0000 
  3 H3       4.7250    -5.3150    27.3280 H     1 LIG   0.0000 
  4 C4       4.7400    -6.0640    25.4760 C.2   1 LIG   0.0000 
  5 H5       4.6180    -6.8830    24.9160 H     1 LIG   0.0000 
  6 C6       5.0890    -4.7390    24.8190 C.2   1 LIG   0.0000 
  7 O7       5.2400    -3.7570    25.4920 O.2   1 LIG   0.0000 
  8 N8       5.2340    -4.6630    23.4280 N.am  1 LIG   0.0000 
  9 C9       5.0470    -5.8810    22.6250 C.3   1 LIG   0.0000 
 10 H10      4.0930    -5.9380    22.3310 H     1 LIG   0.0000 
 11 H11      5.2730    -6.6800    23.1820 H     1 LIG   0.0000 
 12 C12      5.9460    -5.8590    21.3980 C.3   1 LIG   0.0000 
 13 H13      6.8880    -6.0340    21.6820 H     1 LIG   0.0000 
 14 H14      5.6500    -6.5740    20.7650 H     1 LIG   0.0000 
 15 O15      5.8880    -4.6020    20.7360 O.3   1 LIG   0.0000 
 16 C16      6.4290    -3.5830    21.5660 C.3   1 LIG   0.0000 
 17 C17      6.5120    -2.2620    20.8180 C.ar  1 LIG   0.0000 
 18 C18      5.8010    -2.1310    19.6290 C.ar  1 LIG   0.0000 
 19 H19      5.2540    -2.8950    19.2860 H     1 LIG   0.0000 
 20 C20      5.8520    -0.9380    18.9160 C.ar  1 LIG   0.0000 
 21 H21      5.3430    -0.8390    18.0610 H     1 LIG   0.0000 
 22 C22      6.6170     0.1180    19.4030 C.ar  1 LIG   0.0000 
 23 F23      6.6690     1.2610    18.7250 F     1 LIG   0.0000 
 24 C24      7.3280    -0.0120    20.5920 C.ar  1 LIG   0.0000 
 25 F25      8.0560     1.0060    21.0450 F     1 LIG   0.0000 
 26 C26      7.2760    -1.2060    21.3030 C.ar  1 LIG   0.0000 
 27 C27      8.0600    -1.3280    22.6000 C.3   1 LIG   0.0000 
 28 H28      7.6130    -1.9930    23.1980 H     1 LIG   0.0000 
 29 H29      8.0920    -0.4380    23.0560 H     1 LIG   0.0000 
 30 C30      9.4750    -1.7920    22.2950 C.3   1 LIG   0.0000 
 31 C31     10.1520    -2.2320    23.5830 C.3   1 LIG   0.0000 
 32 H32      9.6360    -2.9850    23.9910 H     1 LIG   0.0000 
 33 H33     11.0830    -2.5370    23.3820 H     1 LIG   0.0000 
 34 H34     10.1840    -1.4640    24.2220 H     1 LIG   0.0000 
 35 N35     10.2350    -0.6860    21.6950 N.pl3 1 LIG   0.0000 
 36 H36     10.5340    -0.7430    20.7430 H     1 LIG   0.0000 
 37 C37     10.5390     0.4480    22.4570 C.ar  1 LIG   0.0000 
 38 C38     11.1390     1.5280    21.8160 C.ar  1 LIG   0.0000 
 39 H39     11.3450     1.4880    20.8380 H     1 LIG   0.0000 
 40 C40     11.4480     2.6630    22.5580 C.ar  1 LIG   0.0000 
 41 H41     11.8790     3.4480    22.1140 H     1 LIG   0.0000 
 42 C42     11.1560     2.7080    23.9180 C.ar  1 LIG   0.0000 
 43 C43     11.4980     3.9540    24.7210 C.1   1 LIG   0.0000 
 44 N44     11.7540     4.8880    25.3230 N.1   1 LIG   0.0000 
 45 C45     10.5560     1.5960    24.4990 C.ar  1 LIG   0.0000 
 46 H46     10.3380     1.6070    25.4750 H     1 LIG   0.0000 
 47 N47     10.2650     0.5090    23.7690 N.ar  1 LIG   0.0000 
 48 C48      5.5710    -3.3740    22.8050 C.3   1 LIG   0.0000 
 49 H49      6.0740    -2.8140    23.4620 H     1 LIG   0.0000 
 50 H50      4.7270    -2.9060    22.5440 H     1 LIG   0.0000 
 51 H51      7.3490    -3.8520    21.8520 H     1 LIG   0.0000 
 52 H52      9.4430    -2.5600    21.6560 H     1 LIG   0.0000 
@<TRIPOS>BOND
  1   1   2  1   
  2   1   3  1   
  3   1   4  2   
  4   4   5  1   
  5   4   6  1   
  6   6   7  2   
  7   6   8  am  
  8   8   9  1   
  9   8  48  1   
 10   9  10  1   
 11   9  11  1   
 12   9  12  1   
 13  12  13  1   
 14  12  14  1   
 15  12  15  1   
 16  15  16  1   
 17  16  17  1   
 18  16  48  1   
 19  16  51  1   
 20  17  18  ar  
 21  17  26  ar  
 22  18  19  1   
 23  18  20  ar  
 24  20  21  1   
 25  20  22  ar  
 26  22  23  1   
 27  22  24  ar  
 28  24  25  1   
 29  24  26  ar  
 30  26  27  1   
 31  27  28  1   
 32  27  29  1   
 33  27  30  1   
 34  30  31  1   
 35  30  35  1   
 36  30  52  1   
 37  31  32  1   
 38  31  33  1   
 39  31  34  1   
 40  35  36  1   
 41  35  37  1   
 42  37  38  ar  
 43  37  47  ar  
 44  38  39  1   
 45  38  40  ar  
 46  40  41  1   
 47  40  42  ar  
 48  42  43  1   
 49  42  45  ar  
 50  43  44  3   
 51  45  46  1   
 52  45  47  ar  
 53  48  49  1   
 54  48  50  1   
@<TRIPOS>SUBSTRUCTURE
  1 LIG  27 GROUP 4 **** **** 0
@<TRIPOS>PROPERTY_DATA
index	|	ligand020
Name	|	BEN-VAN-77c-12
ChemPlp	|	-96.8868
MM-GBSA Nwat=0	|	-31.1363
STDEV0	|	3.5988
MM-GBSA Nwat=30	|	-57.6446
STDEV30	|	6.19
MM-GBSA Nwat=60	|	-63.1485
STDEV60	|	5.4473
ST.DEV < 10%	|	N
RMSD LIG < 2	|	
DIST < 5	|	
DIST < 3.5	|	N

# MOE 2019.01 (io_trps.svl 2018.10)

@<TRIPOS>MOLECULE
ligand539
51 53 1 0 0 
SMALL
NO_CHARGES


@<TRIPOS>ATOM
  1 O1       7.9290    -4.7480    27.9910 O.2   1 LIG   0.0000 
  2 C2       6.8990    -4.9320    27.4030 C.2   1 LIG   0.0000 
  3 C3       5.8150    -5.7990    28.0230 C.3   1 LIG   0.0000 
  4 CL6      6.3610    -6.3870    29.6110 Cl    1 LIG   0.0000 
  5 N7       6.6970    -4.3490    26.1470 N.am  1 LIG   0.0000 
  6 C8       5.4290    -4.5940    25.4400 C.3   1 LIG   0.0000 
  7 C11      5.6200    -4.6140    23.9310 C.3   1 LIG   0.0000 
  8 N14      6.4670    -3.5030    23.4640 N.am  1 LIG   0.0000 
  9 S15      6.6130    -3.6570    21.7170 S.o2  1 LIG   0.0000 
 10 O16      7.9580    -4.0450    21.3800 O.2   1 LIG   0.0000 
 11 O17      5.6920    -4.6580    21.2450 O.2   1 LIG   0.0000 
 12 C18      6.2450    -2.1300    20.9680 C.ar  1 LIG   0.0000 
 13 C19      5.8010    -2.1050    19.6500 C.ar  1 LIG   0.0000 
 14 C21      5.5050    -0.8880    19.0440 C.ar  1 LIG   0.0000 
 15 C23      5.6580     0.2900    19.7680 C.ar  1 LIG   0.0000 
 16 CL24     5.2820     1.8530    19.0020 Cl    1 LIG   0.0000 
 17 C25      6.1020     0.2620    21.0860 C.ar  1 LIG   0.0000 
 18 C27      6.4000    -0.9540    21.6940 C.ar  1 LIG   0.0000 
 19 C29      7.8080    -3.6230    24.0600 C.3   1 LIG   0.0000 
 20 C30      8.7400    -2.5390    23.5440 C.3   1 LIG   0.0000 
 21 C33     10.0390    -2.5680    24.3330 C.3   1 LIG   0.0000 
 22 C36     10.9450    -1.4430    23.8610 C.ar  1 LIG   0.0000 
 23 C37     11.7400    -1.6170    22.7330 C.ar  1 LIG   0.0000 
 24 C39     12.5690    -0.5870    22.3000 C.ar  1 LIG   0.0000 
 25 C41     12.6040     0.6170    22.9960 C.ar  1 LIG   0.0000 
 26 C43     11.8090     0.7910    24.1250 C.ar  1 LIG   0.0000 
 27 C45     10.9800    -0.2390    24.5570 C.ar  1 LIG   0.0000 
 28 O46     10.2150    -0.0530    25.6540 O.3   1 LIG   0.0000 
 29 C48      7.7680    -3.5160    25.5770 C.3   1 LIG   0.0000 
 30 H19      5.6940    -2.9580    19.1390 H     1 LIG   0.0000 
 31 H21      5.1850    -0.8600    18.0970 H     1 LIG   0.0000 
 32 H25      6.2080     1.1150    21.5960 H     1 LIG   0.0000 
 33 H27      6.7200    -0.9810    22.6400 H     1 LIG   0.0000 
 34 H37     11.7160    -2.4830    22.2330 H     1 LIG   0.0000 
 35 H39     13.1400    -0.7120    21.4890 H     1 LIG   0.0000 
 36 H41     13.2000     1.3580    22.6850 H     1 LIG   0.0000 
 37 H43     11.8340     1.6570    24.6250 H     1 LIG   0.0000 
 38 H31      4.9810    -5.2580    28.1360 H     1 LIG   0.0000 
 39 H32      5.6290    -6.5780    27.4250 H     1 LIG   0.0000 
 40 H81      4.7820    -3.8680    25.6760 H     1 LIG   0.0000 
 41 H82      5.0600    -5.4760    25.7320 H     1 LIG   0.0000 
 42 H111     6.0510    -5.4780    23.6720 H     1 LIG   0.0000 
 43 H112     4.7250    -4.5430    23.4920 H     1 LIG   0.0000 
 44 H29      8.1890    -4.5140    23.8130 H     1 LIG   0.0000 
 45 H301     8.3040    -1.6450    23.6520 H     1 LIG   0.0000 
 46 H302     8.9350    -2.6990    22.5760 H     1 LIG   0.0000 
 47 H331     9.8400    -2.4500    25.3060 H     1 LIG   0.0000 
 48 H332    10.4960    -3.4460    24.1900 H     1 LIG   0.0000 
 49 H481     8.6460    -3.8180    25.9480 H     1 LIG   0.0000 
 50 H482     7.6080    -2.5620    25.8310 H     1 LIG   0.0000 
 51 H46     10.4070     0.7070    26.2750 H     1 LIG   0.0000 
@<TRIPOS>BOND
  1   1   2  2   
  2   2   3  1   
  3   2   5  am  
  4   3   4  1   
  5   3  38  1   
  6   3  39  1   
  7   5   6  1   
  8   5  29  1   
  9   6   7  1   
 10   6  40  1   
 11   6  41  1   
 12   7   8  1   
 13   7  42  1   
 14   7  43  1   
 15   8   9  am  
 16   8  19  1   
 17   9  10  2   
 18   9  11  2   
 19   9  12  1   
 20  12  13  ar  
 21  12  18  ar  
 22  13  14  ar  
 23  13  30  1   
 24  14  15  ar  
 25  14  31  1   
 26  15  16  1   
 27  15  17  ar  
 28  17  18  ar  
 29  17  32  1   
 30  18  33  1   
 31  19  20  1   
 32  19  29  1   
 33  19  44  1   
 34  20  21  1   
 35  20  45  1   
 36  20  46  1   
 37  21  22  1   
 38  21  47  1   
 39  21  48  1   
 40  22  23  ar  
 41  22  27  ar  
 42  23  24  ar  
 43  23  34  1   
 44  24  25  ar  
 45  24  35  1   
 46  25  26  ar  
 47  25  36  1   
 48  26  27  ar  
 49  26  37  1   
 50  27  28  1   
 51  28  51  1   
 52  29  49  1   
 53  29  50  1   
@<TRIPOS>SUBSTRUCTURE
  1 LIG  20 GROUP 4 **** **** 0
@<TRIPOS>PROPERTY_DATA
index	|	ligand539
Name	|	SAL-INS-1ea-4
ChemPlp	|	-93.3186
MM-GBSA Nwat=0	|	20.8423
STDEV0	|	3.8647
MM-GBSA Nwat=30	|	-55.6254
STDEV30	|	12.2825
MM-GBSA Nwat=60	|	-85.0757
STDEV60	|	11.9169
ST.DEV < 10%	|	N
RMSD LIG < 2	|	
DIST < 5	|	
DIST < 3.5	|	N

# MOE 2019.01 (io_trps.svl 2018.10)

@<TRIPOS>MOLECULE
ligand411
54 56 1 0 0 
SMALL
USER_CHARGES


@<TRIPOS>ATOM
  1 C1      13.4310    -0.9570    22.7660 C.3   1 LIG   0.0000 
  2 C5      12.4110     0.1570    22.5950 C.2   1 LIG   0.0000 
  3 N6      11.2790    -0.0410    21.9400 N.2   1 LIG   0.0000 
  4 C7      10.3520     0.9580    21.7810 C.2   1 LIG   0.0000 
  5 C8       9.0580     0.7060    21.0240 C.3   1 LIG   0.0000 
  6 N11      8.3440    -0.4240    21.6350 N.4   1 LIG   1.0000 
  7 C13      7.0260    -0.5030    20.9850 C.3   1 LIG   0.0000 
  8 C16      6.2060    -1.6740    21.5060 C.3   1 LIG   0.0000 
  9 N19      7.0090    -2.9040    21.5830 N.am  1 LIG   0.0000 
 10 C20      6.3750    -4.1310    21.3600 C.2   1 LIG   0.0000 
 11 O21      5.2010    -4.1630    21.1120 O.2   1 LIG   0.0000 
 12 C22      7.1720    -5.4230    21.4320 C.3   1 LIG   0.0000 
 13 CL25     6.4000    -6.5330    22.5900 Cl    1 LIG   0.0000 
 14 C26      8.4520    -2.8920    21.8730 C.3   1 LIG   0.0000 
 15 C29      9.1230    -1.6370    21.3350 C.3   1 LIG   0.0000 
 16 C32     10.5740     2.2070    22.3020 C.2   1 LIG   0.0000 
 17 N33      9.5990     3.2970    22.1470 N.4   1 LIG   1.0000 
 18 C35      9.2700     3.8510    23.4680 C.3   1 LIG   0.0000 
 19 C38      8.5550     5.1810    23.2950 C.ar  1 LIG   0.0000 
 20 C39      8.8610     6.2460    24.1360 C.ar  1 LIG   0.0000 
 21 C41      8.2000     7.4590    23.9690 C.ar  1 LIG   0.0000 
 22 C43      7.2420     7.5990    22.9700 C.ar  1 LIG   0.0000 
 23 C45      6.9460     6.5250    22.1360 C.ar  1 LIG   0.0000 
 24 O46      6.0160     6.6710    21.1680 O.3   1 LIG   0.0000 
 25 C48      7.6000     5.3080    22.2920 C.ar  1 LIG   0.0000 
 26 C50     11.7850     2.4330    23.0070 C.2   1 LIG   0.0000 
 27 O51     12.0040     3.5390    23.4800 O.2   1 LIG   0.0000 
 28 N52     12.6710     1.3920    23.1320 N.am  1 LIG   0.0000 
 29 H39      9.5490     6.1410    24.8530 H     1 LIG   0.0000 
 30 H41      8.4150     8.2310    24.5680 H     1 LIG   0.0000 
 31 H43      6.7670     8.4700    22.8510 H     1 LIG   0.0000 
 32 H48      7.3870     4.5360    21.6920 H     1 LIG   0.0000 
 33 H11     14.2140    -0.6150    23.2860 H     1 LIG   0.0000 
 34 H12     13.0130    -1.7200    23.2580 H     1 LIG   0.0000 
 35 H13     13.7390    -1.2680    21.8660 H     1 LIG   0.0000 
 36 H81      8.4830     1.5240    21.0640 H     1 LIG   0.0000 
 37 H82      9.2660     0.4920    20.0690 H     1 LIG   0.0000 
 38 H11      8.2490    -0.2950    22.6220 H     1 LIG   0.0000 
 39 H131     7.1570    -0.6140    20.0000 H     1 LIG   0.0000 
 40 H132     6.5260     0.3450    21.1620 H     1 LIG   0.0000 
 41 H161     5.8640    -1.4510    22.4180 H     1 LIG   0.0000 
 42 H162     5.4330    -1.8290    20.8890 H     1 LIG   0.0000 
 43 H221     7.1980    -5.8500    20.5280 H     1 LIG   0.0000 
 44 H222     8.1040    -5.2240    21.7330 H     1 LIG   0.0000 
 45 H261     8.8750    -3.6930    21.4490 H     1 LIG   0.0000 
 46 H262     8.5840    -2.9300    22.8640 H     1 LIG   0.0000 
 47 H291    10.0290    -1.5510    21.7500 H     1 LIG   0.0000 
 48 H292     9.2190    -1.7220    20.3430 H     1 LIG   0.0000 
 49 H331     8.7680     2.9430    21.7170 H     1 LIG   0.0000 
 50 H332     9.9910     4.0150    21.5720 H     1 LIG   0.0000 
 51 H351    10.1110     3.9900    23.9900 H     1 LIG   0.0000 
 52 H352     8.6750     3.2140    23.9580 H     1 LIG   0.0000 
 53 H52     13.5280     1.5390    23.6260 H     1 LIG   0.0000 
 54 H46      5.7840     5.8980    20.5780 H     1 LIG   0.0000 
@<TRIPOS>BOND
  1   1   2  1   
  2   1  33  1   
  3   1  34  1   
  4   1  35  1   
  5   2   3  2   
  6   2  28  1   
  7   3   4  1   
  8   4   5  1   
  9   4  16  2   
 10   5   6  1   
 11   5  36  1   
 12   5  37  1   
 13   6   7  1   
 14   6  15  1   
 15   6  38  1   
 16   7   8  1   
 17   7  39  1   
 18   7  40  1   
 19   8   9  1   
 20   8  41  1   
 21   8  42  1   
 22   9  10  am  
 23   9  14  1   
 24  10  11  2   
 25  10  12  1   
 26  12  13  1   
 27  12  43  1   
 28  12  44  1   
 29  14  15  1   
 30  14  45  1   
 31  14  46  1   
 32  15  47  1   
 33  15  48  1   
 34  16  17  1   
 35  16  26  1   
 36  17  18  1   
 37  17  49  1   
 38  17  50  1   
 39  18  19  1   
 40  18  51  1   
 41  18  52  1   
 42  19  20  ar  
 43  19  25  ar  
 44  20  21  ar  
 45  20  29  1   
 46  21  22  ar  
 47  21  30  1   
 48  22  23  ar  
 49  22  31  1   
 50  23  24  1   
 51  23  25  ar  
 52  24  54  1   
 53  25  32  1   
 54  26  27  2   
 55  26  28  am  
 56  28  53  1   
@<TRIPOS>SUBSTRUCTURE
  1 LIG   5 GROUP 4 **** **** 0
@<TRIPOS>PROPERTY_DATA
index	|	ligand411
Name	|	MAK-UNK-e4a-27
ChemPlp	|	-97.2613
MM-GBSA Nwat=0	|	-20.4882
STDEV0	|	2.6067
MM-GBSA Nwat=30	|	-54.802
STDEV30	|	6.8704
MM-GBSA Nwat=60	|	-77.1729
STDEV60	|	6.5963
ST.DEV < 10%	|	N
RMSD LIG < 2	|	
DIST < 5	|	
DIST < 3.5	|	N

# MOE 2019.01 (io_trps.svl 2018.10)

@<TRIPOS>MOLECULE
ligand228
68 70 1 0 0 
SMALL
USER_CHARGES


@<TRIPOS>ATOM
  1 C1       9.7550     9.7690    26.7270 C.2   1 LIG   0.0000 
  2 C4      10.4970     8.8320    26.2140 C.2   1 LIG   0.0000 
  3 C6       9.9440     7.4260    26.0550 C.2   1 LIG   0.0000 
  4 O7       8.8280     7.1750    26.4190 O.2   1 LIG   0.0000 
  5 N8      10.7350     6.4220    25.4840 N.am  1 LIG   0.0000 
  6 C9      12.0980     6.7670    25.0490 C.3   1 LIG   0.0000 
  7 C12     12.5180     5.9540    23.8330 C.3   1 LIG   0.0000 
  8 N15     12.1820     4.5290    23.9820 N.4   1 LIG   1.0000 
  9 C16     12.5890     3.8590    22.7380 C.3   1 LIG   0.0000 
 10 C19     12.3460     2.3640    22.8650 C.ar  1 LIG   0.0000 
 11 C20     13.3040     1.5800    23.4980 C.ar  1 LIG   0.0000 
 12 C22     13.0900     0.2100    23.6170 C.ar  1 LIG   0.0000 
 13 C24     11.9220    -0.3430    23.1020 C.ar  1 LIG   0.0000 
 14 C26     10.9600     0.4390    22.4690 C.ar  1 LIG   0.0000 
 15 C27      9.7080     0.2260    21.8490 C.2   1 LIG   0.0000 
 16 C28      9.0080    -1.1170    21.7090 C.3   1 LIG   0.0000 
 17 C31      7.5080    -0.8980    21.6050 C.3   1 LIG   0.0000 
 18 N34      6.8400    -2.1870    21.3750 N.am  1 LIG   0.0000 
 19 C36      6.0460    -2.3600    20.2710 C.2   1 LIG   0.0000 
 20 O37      5.5010    -3.4120    20.0840 O.2   1 LIG   0.0000 
 21 C38      5.8580    -1.2190    19.2850 C.3   1 LIG   0.0000 
 22 C41      5.1320    -0.0720    19.9690 C.3   1 LIG   0.0000 
 23 C44      5.2010     1.1660    19.0910 C.3   1 LIG   0.0000 
 24 N47      4.6000     2.3040    19.8020 N.4   1 LIG   1.0000 
 25 C48      3.1500     2.0950    19.9240 C.3   1 LIG   0.0000 
 26 C52      5.1940     2.4150    21.1420 C.3   1 LIG   0.0000 
 27 C56      9.2230     1.4180    21.3940 C.2   1 LIG   0.0000 
 28 N58     10.1370     2.3810    21.7070 N.pl3 1 LIG   0.0000 
 29 C60     11.1860     1.7920    22.3570 C.ar  1 LIG   0.0000 
 30 C61     10.7230     4.3680    24.0990 C.3   1 LIG   0.0000 
 31 C64     10.1710     5.0720    25.3300 C.3   1 LIG   0.0000 
 32 H20     14.1380     1.9950    23.8620 H     1 LIG   0.0000 
 33 H22     13.7680    -0.3700    24.0680 H     1 LIG   0.0000 
 34 H24     11.7690    -1.3280    23.1890 H     1 LIG   0.0000 
 35 H56      8.3550     1.5600    20.9180 H     1 LIG   0.0000 
 36 H58     10.0540     3.3540    21.4970 H     1 LIG   0.0000 
 37 H91     12.7340     6.5820    25.7980 H     1 LIG   0.0000 
 38 H92     12.1290     7.7390    24.8170 H     1 LIG   0.0000 
 39 H121    12.0490     6.3140    23.0260 H     1 LIG   0.0000 
 40 H122    13.5060     6.0430    23.7110 H     1 LIG   0.0000 
 41 H15     12.6500     4.1320    24.7720 H     1 LIG   0.0000 
 42 H161    13.5610     4.0260    22.5720 H     1 LIG   0.0000 
 43 H162    12.0530     4.2200    21.9750 H     1 LIG   0.0000 
 44 H281     9.2080    -1.6820    22.5100 H     1 LIG   0.0000 
 45 H282     9.3360    -1.5790    20.8850 H     1 LIG   0.0000 
 46 H311     7.1700    -0.4950    22.4560 H     1 LIG   0.0000 
 47 H312     7.3130    -0.2810    20.8430 H     1 LIG   0.0000 
 48 H381     5.3170    -1.5380    18.5060 H     1 LIG   0.0000 
 49 H382     6.7510    -0.9050    18.9640 H     1 LIG   0.0000 
 50 H411     4.1760    -0.3240    20.1160 H     1 LIG   0.0000 
 51 H412     5.5660     0.1180    20.8500 H     1 LIG   0.0000 
 52 H441     6.1560     1.3730    18.8800 H     1 LIG   0.0000 
 53 H442     4.7000     1.0010    18.2420 H     1 LIG   0.0000 
 54 H47      4.7730     3.1460    19.2900 H     1 LIG   0.0000 
 55 H481     2.7410     2.8690    20.4080 H     1 LIG   0.0000 
 56 H482     2.7460     2.0200    19.0130 H     1 LIG   0.0000 
 57 H483     2.9770     1.2530    20.4360 H     1 LIG   0.0000 
 58 H521     4.7850     3.1890    21.6250 H     1 LIG   0.0000 
 59 H522     5.0210     1.5730    21.6540 H     1 LIG   0.0000 
 60 H523     6.1800     2.5570    21.0590 H     1 LIG   0.0000 
 61 H611    10.5090     3.3940    24.1610 H     1 LIG   0.0000 
 62 H612    10.2900     4.7540    23.2840 H     1 LIG   0.0000 
 63 H641     9.1770     5.1440    25.2440 H     1 LIG   0.0000 
 64 H642    10.3970     4.5320    26.1410 H     1 LIG   0.0000 
 65 H11     10.1190    10.6940    26.8320 H     1 LIG   0.0000 
 66 H12      8.8200     9.5630    27.0170 H     1 LIG   0.0000 
 67 H4      11.4320     9.0380    25.9240 H     1 LIG   0.0000 
 68 H34      6.9640    -2.9380    22.0240 H     1 LIG   0.0000 
@<TRIPOS>BOND
  1   1   2  2   
  2   1  65  1   
  3   1  66  1   
  4   2   3  1   
  5   2  67  1   
  6   3   4  2   
  7   3   5  am  
  8   5   6  1   
  9   5  31  1   
 10   6   7  1   
 11   6  37  1   
 12   6  38  1   
 13   7   8  1   
 14   7  39  1   
 15   7  40  1   
 16   8   9  1   
 17   8  30  1   
 18   8  41  1   
 19   9  10  1   
 20   9  42  1   
 21   9  43  1   
 22  10  11  ar  
 23  10  29  ar  
 24  11  12  ar  
 25  11  32  1   
 26  12  13  ar  
 27  12  33  1   
 28  13  14  ar  
 29  13  34  1   
 30  14  15  1   
 31  14  29  ar  
 32  15  16  1   
 33  15  27  2   
 34  16  17  1   
 35  16  44  1   
 36  16  45  1   
 37  17  18  1   
 38  17  46  1   
 39  17  47  1   
 40  18  19  am  
 41  18  68  1   
 42  19  20  2   
 43  19  21  1   
 44  21  22  1   
 45  21  48  1   
 46  21  49  1   
 47  22  23  1   
 48  22  50  1   
 49  22  51  1   
 50  23  24  1   
 51  23  52  1   
 52  23  53  1   
 53  24  25  1   
 54  24  26  1   
 55  24  54  1   
 56  25  55  1   
 57  25  56  1   
 58  25  57  1   
 59  26  58  1   
 60  26  59  1   
 61  26  60  1   
 62  27  28  1   
 63  27  35  1   
 64  28  29  1   
 65  28  36  1   
 66  30  31  1   
 67  30  61  1   
 68  30  62  1   
 69  31  63  1   
 70  31  64  1   
@<TRIPOS>SUBSTRUCTURE
  1 LIG  28 GROUP 4 **** **** 0
@<TRIPOS>PROPERTY_DATA
index	|	ligand228
Name	|	JAN-GHE-641-8
ChemPlp	|	-104.654
MM-GBSA Nwat=0	|	-13.9906
STDEV0	|	3.0262
MM-GBSA Nwat=30	|	-53.4788
STDEV30	|	6.2713
MM-GBSA Nwat=60	|	-81.9353
STDEV60	|	6.0702
ST.DEV < 10%	|	N
RMSD LIG < 2	|	
DIST < 5	|	
DIST < 3.5	|	N

# MOE 2019.01 (io_trps.svl 2018.10)

@<TRIPOS>MOLECULE
ligand218
74 78 1 0 0 
SMALL
NO_CHARGES


@<TRIPOS>ATOM
  1 C1       7.5490     5.6160    24.3260 C.3   1 LIG   0.0000 
  2 C5       8.2880     6.0860    23.0840 C.3   1 LIG   0.0000 
  3 N6       9.4410     5.2080    22.8380 N.am  1 LIG   0.0000 
  4 C8      10.3690     5.0030    23.8250 C.2   1 LIG   0.0000 
  5 O9      10.2400     5.5410    24.8900 O.2   1 LIG   0.0000 
  6 C10     11.5620     4.0950    23.5710 C.3   1 LIG   0.0000 
  7 C11     11.2090     2.9010    22.7140 C.3   1 LIG   0.0000 
  8 C12     11.1400     1.6210    23.5320 C.ar  1 LIG   0.0000 
  9 C13     11.9010     1.5620    24.6940 C.ar  1 LIG   0.0000 
 10 C15     11.8830     0.4200    25.4870 C.ar  1 LIG   0.0000 
 11 C17     11.0880    -0.6490    25.0900 C.ar  1 LIG   0.0000 
 12 C19     10.3170    -0.6080    23.9300 C.ar  1 LIG   0.0000 
 13 C20     10.3490     0.5400    23.1460 C.ar  1 LIG   0.0000 
 14 C21      9.5030     0.5580    21.8820 C.3   1 LIG   0.0000 
 15 N24      8.2260    -0.1400    22.0820 N.am  1 LIG   0.0000 
 16 C25      7.1460     0.2100    21.2620 C.2   1 LIG   0.0000 
 17 O26      6.0880    -0.3390    21.3950 O.2   1 LIG   0.0000 
 18 C27      7.3160     1.2870    20.2020 C.3   1 LIG   0.0000 
 19 CL30     6.7430     0.6700    18.6340 Cl    1 LIG   0.0000 
 20 C31      8.1000    -1.1780    23.1200 C.3   1 LIG   0.0000 
 21 C32      7.1580    -2.2510    22.5970 C.ar  1 LIG   0.0000 
 22 C33      6.0760    -2.6420    23.3790 C.ar  1 LIG   0.0000 
 23 C35      5.2220    -3.6250    22.8910 C.ar  1 LIG   0.0000 
 24 N36      4.1290    -4.0270    23.6690 N.am  1 LIG   0.0000 
 25 C38      3.5150    -5.2260    23.4200 C.2   1 LIG   0.0000 
 26 N39      2.4460    -5.6200    24.1820 N.am  1 LIG   0.0000 
 27 O42      3.9140    -5.9320    22.5360 O.2   1 LIG   0.0000 
 28 N43      5.4640    -4.1640    21.6860 N.ar  1 LIG   0.0000 
 29 C44      6.5110    -3.7770    20.9440 C.ar  1 LIG   0.0000 
 30 N46      7.3440    -2.8300    21.4010 N.ar  1 LIG   0.0000 
 31 C47      9.4400    -1.7770    23.5060 C.3   1 LIG   0.0000 
 32 C48      9.1740    -2.7810    24.6160 C.ar  1 LIG   0.0000 
 33 C49      9.4080    -4.1340    24.3910 C.ar  1 LIG   0.0000 
 34 C51      9.1630    -5.0500    25.4090 C.ar  1 LIG   0.0000 
 35 C53      8.6880    -4.6110    26.6400 C.ar  1 LIG   0.0000 
 36 C55      8.4580    -3.2570    26.8530 C.ar  1 LIG   0.0000 
 37 C57      8.6990    -2.3320    25.8440 C.ar  1 LIG   0.0000 
 38 C59     12.5780     3.0910    22.0950 C.3   1 LIG   0.0000 
 39 C62     12.4140     4.5590    22.4110 C.3   1 LIG   0.0000 
 40 F63     13.5520     5.1300    22.7940 F     1 LIG   0.0000 
 41 F64     11.7720     5.2540    21.4740 F     1 LIG   0.0000 
 42 C65      7.3520     6.0390    21.8880 C.2   1 LIG   0.0000 
 43 N66      6.5660     4.9360    21.6760 N.am  1 LIG   0.0000 
 44 O69      7.2990     6.9680    21.1290 O.2   1 LIG   0.0000 
 45 H13     12.4640     2.3440    24.9610 H     1 LIG   0.0000 
 46 H15     12.4280     0.3690    26.3240 H     1 LIG   0.0000 
 47 H17     11.0700    -1.4750    25.6540 H     1 LIG   0.0000 
 48 H33      5.9160    -2.2260    24.2740 H     1 LIG   0.0000 
 49 H44      6.6710    -4.1940    20.0490 H     1 LIG   0.0000 
 50 H49      9.7510    -4.4460    23.5050 H     1 LIG   0.0000 
 51 H51      9.3280    -6.0240    25.2550 H     1 LIG   0.0000 
 52 H53      8.5120    -5.2690    27.3720 H     1 LIG   0.0000 
 53 H55      8.1160    -2.9460    27.7400 H     1 LIG   0.0000 
 54 H57      8.5330    -1.3570    25.9980 H     1 LIG   0.0000 
 55 H11      6.7640     6.2130    24.4930 H     1 LIG   0.0000 
 56 H12      7.2300     4.6780    24.1890 H     1 LIG   0.0000 
 57 H13      8.1650     5.6470    25.1120 H     1 LIG   0.0000 
 58 H5       8.6070     7.0240    23.2210 H     1 LIG   0.0000 
 59 H10     12.0820     3.8660    24.3930 H     1 LIG   0.0000 
 60 H11     10.4410     3.0430    22.0890 H     1 LIG   0.0000 
 61 H211     9.3180     1.5080    21.6280 H     1 LIG   0.0000 
 62 H212    10.0080     0.1080    21.1450 H     1 LIG   0.0000 
 63 H271     6.7830     2.0930    20.4580 H     1 LIG   0.0000 
 64 H272     8.2820     1.5350    20.1300 H     1 LIG   0.0000 
 65 H31      7.6900    -0.7650    23.9330 H     1 LIG   0.0000 
 66 H47      9.8470    -2.2390    22.7180 H     1 LIG   0.0000 
 67 H591    13.3260     2.6370    22.5790 H     1 LIG   0.0000 
 68 H592    12.6320     2.8740    21.1200 H     1 LIG   0.0000 
 69 H6       9.5480     4.7600    21.9500 H     1 LIG   0.0000 
 70 H36      3.7970    -3.4390    24.4060 H     1 LIG   0.0000 
 71 H391     2.1140    -5.0310    24.9190 H     1 LIG   0.0000 
 72 H392     1.9980    -6.4950    24.0010 H     1 LIG   0.0000 
 73 H661     6.6100     4.1630    22.3080 H     1 LIG   0.0000 
 74 H662     5.9500     4.9050    20.8890 H     1 LIG   0.0000 
@<TRIPOS>BOND
  1   1   2  1   
  2   1  55  1   
  3   1  56  1   
  4   1  57  1   
  5   2   3  1   
  6   2  42  1   
  7   2  58  1   
  8   3   4  am  
  9   3  69  1   
 10   4   5  2   
 11   4   6  1   
 12   6   7  1   
 13   6  39  1   
 14   6  59  1   
 15   7   8  1   
 16   7  38  1   
 17   7  60  1   
 18   8   9  ar  
 19   8  13  ar  
 20   9  10  ar  
 21   9  45  1   
 22  10  11  ar  
 23  10  46  1   
 24  11  12  ar  
 25  11  47  1   
 26  12  13  ar  
 27  12  31  1   
 28  13  14  1   
 29  14  15  1   
 30  14  61  1   
 31  14  62  1   
 32  15  16  am  
 33  15  20  1   
 34  16  17  2   
 35  16  18  1   
 36  18  19  1   
 37  18  63  1   
 38  18  64  1   
 39  20  21  1   
 40  20  31  1   
 41  20  65  1   
 42  21  22  ar  
 43  21  30  ar  
 44  22  23  ar  
 45  22  48  1   
 46  23  24  1   
 47  23  28  ar  
 48  24  25  am  
 49  24  70  1   
 50  25  26  am  
 51  25  27  2   
 52  26  71  1   
 53  26  72  1   
 54  28  29  ar  
 55  29  30  ar  
 56  29  49  1   
 57  31  32  1   
 58  31  66  1   
 59  32  33  ar  
 60  32  37  ar  
 61  33  34  ar  
 62  33  50  1   
 63  34  35  ar  
 64  34  51  1   
 65  35  36  ar  
 66  35  52  1   
 67  36  37  ar  
 68  36  53  1   
 69  37  54  1   
 70  38  39  1   
 71  38  67  1   
 72  38  68  1   
 73  39  40  1   
 74  39  41  1   
 75  42  43  am  
 76  42  44  2   
 77  43  73  1   
 78  43  74  1   
@<TRIPOS>SUBSTRUCTURE
  1 LIG  15 GROUP 4 **** **** 0
@<TRIPOS>PROPERTY_DATA
index	|	ligand218
Name	|	INS-INS-abe-1
ChemPlp	|	-102.528
MM-GBSA Nwat=0	|	-33.035
STDEV0	|	3.5782
MM-GBSA Nwat=30	|	-53.4134
STDEV30	|	7.6901
MM-GBSA Nwat=60	|	-71.1204
STDEV60	|	9.7974
ST.DEV < 10%	|	N
RMSD LIG < 2	|	
DIST < 5	|	
DIST < 3.5	|	N

# MOE 2019.01 (io_trps.svl 2018.10)

@<TRIPOS>MOLECULE
ligand283
44 45 1 0 0 
SMALL
NO_CHARGES


@<TRIPOS>ATOM
  1 C1       5.8370    -5.8780    21.3920 C.2   1 LIG   0.0000 
  2 C4       6.7830    -5.0240    21.6490 C.2   1 LIG   0.0000 
  3 C6       6.7330    -3.6300    21.0470 C.2   1 LIG   0.0000 
  4 O7       5.8040    -3.3060    20.3600 O.2   1 LIG   0.0000 
  5 N8       7.7490    -2.7420    21.2880 N.am  1 LIG   0.0000 
  6 C10      7.7000    -1.3940    20.7050 C.3   1 LIG   0.0000 
  7 C13      8.7330    -0.5100    21.3860 C.ar  1 LIG   0.0000 
  8 C14      9.8340    -1.0950    22.0030 C.ar  1 LIG   0.0000 
  9 C16     10.7820    -0.2910    22.6260 C.ar  1 LIG   0.0000 
 10 C18     10.6170     1.0900    22.6240 C.ar  1 LIG   0.0000 
 11 C19     11.6040     1.9330    23.2710 C.2   1 LIG   0.0000 
 12 O20     12.5650     1.4400    23.7930 O.2   1 LIG   0.0000 
 13 N21     11.4380     3.2930    23.2870 N.am  1 LIG   0.0000 
 14 C23     12.4380     4.1470    23.9430 C.3   1 LIG   0.0000 
 15 C24     13.4490     4.6260    22.9150 C.3   1 LIG   0.0000 
 16 O27     14.5540     5.2220    23.5790 O.3   1 LIG   0.0000 
 17 C29     11.7460     5.3480    24.5700 C.ar  1 LIG   0.0000 
 18 C30     10.4750     5.7220    24.1410 C.ar  1 LIG   0.0000 
 19 C32      9.8430     6.8190    24.7150 C.ar  1 LIG   0.0000 
 20 C34     10.4960     7.5310    25.7160 C.ar  1 LIG   0.0000 
 21 BR35     9.6140     9.0800    26.5300 Br    1 LIG   0.0000 
 22 C36     11.7650     7.1550    26.1420 C.ar  1 LIG   0.0000 
 23 F37     12.3740     7.8470    27.1000 F     1 LIG   0.0000 
 24 C38     12.4000     6.0580    25.5700 C.ar  1 LIG   0.0000 
 25 C40      9.5160     1.6760    22.0080 C.ar  1 LIG   0.0000 
 26 C42      8.5670     0.8720    21.3860 C.ar  1 LIG   0.0000 
 27 H14      9.9430    -2.0890    21.9980 H     1 LIG   0.0000 
 28 H16     11.5770    -0.7030    23.0730 H     1 LIG   0.0000 
 29 H40      9.4080     2.6700    22.0130 H     1 LIG   0.0000 
 30 H42      7.7710     1.2840    20.9420 H     1 LIG   0.0000 
 31 H30     10.0180     5.2010    23.4200 H     1 LIG   0.0000 
 32 H32      8.9300     7.0930    24.4120 H     1 LIG   0.0000 
 33 H38     13.3130     5.7840    25.8740 H     1 LIG   0.0000 
 34 H101     6.7880    -1.0050    20.8390 H     1 LIG   0.0000 
 35 H102     7.9000    -1.4460    19.7260 H     1 LIG   0.0000 
 36 H23     12.9070     3.6250    24.6550 H     1 LIG   0.0000 
 37 H241    13.7670     3.8480    22.3730 H     1 LIG   0.0000 
 38 H242    13.0200     5.2980    22.3120 H     1 LIG   0.0000 
 39 H11      5.8700    -6.7950    21.7890 H     1 LIG   0.0000 
 40 H12      5.0760    -5.6170    20.7980 H     1 LIG   0.0000 
 41 H4       7.5440    -5.2850    22.2440 H     1 LIG   0.0000 
 42 H8       8.5230    -3.0120    21.8600 H     1 LIG   0.0000 
 43 H21     10.6370     3.7040    22.8520 H     1 LIG   0.0000 
 44 H27     14.4980     6.2170    23.4900 H     1 LIG   0.0000 
@<TRIPOS>BOND
  1   1   2  2   
  2   1  39  1   
  3   1  40  1   
  4   2   3  1   
  5   2  41  1   
  6   3   4  2   
  7   3   5  am  
  8   5   6  1   
  9   5  42  1   
 10   6   7  1   
 11   6  34  1   
 12   6  35  1   
 13   7   8  ar  
 14   7  26  ar  
 15   8   9  ar  
 16   8  27  1   
 17   9  10  ar  
 18   9  28  1   
 19  10  11  1   
 20  10  25  ar  
 21  11  12  2   
 22  11  13  am  
 23  13  14  1   
 24  13  43  1   
 25  14  15  1   
 26  14  17  1   
 27  14  36  1   
 28  15  16  1   
 29  15  37  1   
 30  15  38  1   
 31  16  44  1   
 32  17  18  ar  
 33  17  24  ar  
 34  18  19  ar  
 35  18  31  1   
 36  19  20  ar  
 37  19  32  1   
 38  20  21  1   
 39  20  22  ar  
 40  22  23  1   
 41  22  24  ar  
 42  24  33  1   
 43  25  26  ar  
 44  25  29  1   
 45  26  30  1   
@<TRIPOS>SUBSTRUCTURE
  1 LIG  10 GROUP 4 **** **** 0
@<TRIPOS>PROPERTY_DATA
index	|	ligand283
Name	|	JUA-UNI-bc0-4
ChemPlp	|	-97.6039
MM-GBSA Nwat=0	|	-21.8214
STDEV0	|	3.3755
MM-GBSA Nwat=30	|	-53.0356
STDEV30	|	6.1238
MM-GBSA Nwat=60	|	-66.2155
STDEV60	|	6.3419
ST.DEV < 10%	|	N
RMSD LIG < 2	|	
DIST < 5	|	
DIST < 3.5	|	N

# MOE 2019.01 (io_trps.svl 2018.10)

@<TRIPOS>MOLECULE
ligand295
60 63 1 0 0 
SMALL
USER_CHARGES


@<TRIPOS>ATOM
  1 O1       5.8010    -4.2170    20.4000 O.2   1 LIG   0.0000 
  2 C2       6.2210    -4.7520    21.3890 C.2   1 LIG   0.0000 
  3 C3       5.4760    -5.9330    21.9900 C.3   1 LIG   0.0000 
  4 CL6      4.2920    -5.3440    23.1810 Cl    1 LIG   0.0000 
  5 N7       7.3970    -4.2870    21.9900 N.am  1 LIG   0.0000 
  6 C8       7.8820    -4.9670    23.2020 C.3   1 LIG   0.0000 
  7 C11      8.5860    -4.0000    24.1410 C.3   1 LIG   0.0000 
  8 N14      9.5240    -3.1210    23.4230 N.4   1 LIG   1.0000 
  9 C16     10.1040    -2.2070    24.4180 C.3   1 LIG   0.0000 
 10 C19     11.2190    -1.3990    23.7740 C.ar  1 LIG   0.0000 
 11 C20     12.1020    -2.0240    22.9000 C.ar  1 LIG   0.0000 
 12 C22     13.1200    -1.2770    22.3160 C.ar  1 LIG   0.0000 
 13 C24     13.2620     0.0780    22.5960 C.ar  1 LIG   0.0000 
 14 C26     12.3680     0.6830    23.4730 C.ar  1 LIG   0.0000 
 15 C27     12.5070     2.1630    23.7910 C.3   1 LIG   0.0000 
 16 C30     11.4340     2.9440    23.0500 C.3   1 LIG   0.0000 
 17 C33     11.4570     4.3940    23.5040 C.3   1 LIG   0.0000 
 18 N36     10.3280     5.1150    22.8990 N.pl3 1 LIG   0.0000 
 19 C38      9.6250     6.0680    23.6460 C.2   1 LIG   0.0000 
 20 C39      9.9040     6.4370    24.9310 C.2   1 LIG   0.0000 
 21 N41      8.9910     7.3860    25.2850 N.pl3 1 LIG   0.0000 
 22 C43      8.1470     7.6320    24.2420 C.ar  1 LIG   0.0000 
 23 C44      7.0850     8.5290    24.1560 C.ar  1 LIG   0.0000 
 24 C46      6.3330     8.6140    22.9880 C.ar  1 LIG   0.0000 
 25 C48      6.6620     7.7920    21.9150 C.ar  1 LIG   0.0000 
 26 F49      5.9440     7.8600    20.7980 F     1 LIG   0.0000 
 27 C50      7.7340     6.9080    22.0330 C.ar  1 LIG   0.0000 
 28 C52      8.5020     6.8020    23.1910 C.ar  1 LIG   0.0000 
 29 C53     11.3430    -0.0460    24.0680 C.ar  1 LIG   0.0000 
 30 C55      8.7890    -2.2910    22.4540 C.3   1 LIG   0.0000 
 31 C58      8.0920    -3.1340    21.3960 C.3   1 LIG   0.0000 
 32 H20     12.0060    -2.9980    22.6930 H     1 LIG   0.0000 
 33 H22     13.7580    -1.7200    21.6860 H     1 LIG   0.0000 
 34 H24     13.9960     0.6090    22.1720 H     1 LIG   0.0000 
 35 H53     10.7050     0.3980    24.6970 H     1 LIG   0.0000 
 36 H39     10.6410     6.0790    25.5040 H     1 LIG   0.0000 
 37 H41      8.9470     7.8350    26.1780 H     1 LIG   0.0000 
 38 H44      6.8620     9.1130    24.9360 H     1 LIG   0.0000 
 39 H46      5.5690     9.2560    22.9210 H     1 LIG   0.0000 
 40 H50      7.9610     6.3260    21.2530 H     1 LIG   0.0000 
 41 H31      5.0000    -6.4300    21.2640 H     1 LIG   0.0000 
 42 H32      6.1270    -6.5430    22.4400 H     1 LIG   0.0000 
 43 H81      8.5240    -5.6870    22.9360 H     1 LIG   0.0000 
 44 H82      7.1030    -5.3750    23.6790 H     1 LIG   0.0000 
 45 H111     7.8990    -3.4350    24.5980 H     1 LIG   0.0000 
 46 H112     9.0930    -4.5240    24.8250 H     1 LIG   0.0000 
 47 H14     10.2370    -3.6550    22.9680 H     1 LIG   0.0000 
 48 H161    10.4740    -2.7370    25.1810 H     1 LIG   0.0000 
 49 H162     9.3950    -1.5880    24.7540 H     1 LIG   0.0000 
 50 H271    13.4100     2.4830    23.5040 H     1 LIG   0.0000 
 51 H272    12.4010     2.3040    24.7760 H     1 LIG   0.0000 
 52 H301    11.6090     2.8990    22.0660 H     1 LIG   0.0000 
 53 H302    10.5370     2.5470    23.2470 H     1 LIG   0.0000 
 54 H331    11.3820     4.4330    24.5010 H     1 LIG   0.0000 
 55 H332    12.3160     4.8190    23.2180 H     1 LIG   0.0000 
 56 H551     9.4330    -1.6740    22.0030 H     1 LIG   0.0000 
 57 H552     8.1010    -1.7550    22.9440 H     1 LIG   0.0000 
 58 H581     7.4240    -2.5650    20.9160 H     1 LIG   0.0000 
 59 H582     8.7750    -3.4670    20.7460 H     1 LIG   0.0000 
 60 H36     10.0610     4.9250    21.9540 H     1 LIG   0.0000 
@<TRIPOS>BOND
  1   1   2  2   
  2   2   3  1   
  3   2   5  am  
  4   3   4  1   
  5   3  41  1   
  6   3  42  1   
  7   5   6  1   
  8   5  31  1   
  9   6   7  1   
 10   6  43  1   
 11   6  44  1   
 12   7   8  1   
 13   7  45  1   
 14   7  46  1   
 15   8   9  1   
 16   8  30  1   
 17   8  47  1   
 18   9  10  1   
 19   9  48  1   
 20   9  49  1   
 21  10  11  ar  
 22  10  29  ar  
 23  11  12  ar  
 24  11  32  1   
 25  12  13  ar  
 26  12  33  1   
 27  13  14  ar  
 28  13  34  1   
 29  14  15  1   
 30  14  29  ar  
 31  15  16  1   
 32  15  50  1   
 33  15  51  1   
 34  16  17  1   
 35  16  52  1   
 36  16  53  1   
 37  17  18  1   
 38  17  54  1   
 39  17  55  1   
 40  18  19  1   
 41  18  60  1   
 42  19  20  2   
 43  19  28  1   
 44  20  21  1   
 45  20  36  1   
 46  21  22  1   
 47  21  37  1   
 48  22  23  ar  
 49  22  28  ar  
 50  23  24  ar  
 51  23  38  1   
 52  24  25  ar  
 53  24  39  1   
 54  25  26  1   
 55  25  27  ar  
 56  27  28  ar  
 57  27  40  1   
 58  29  35  1   
 59  30  31  1   
 60  30  56  1   
 61  30  57  1   
 62  31  58  1   
 63  31  59  1   
@<TRIPOS>SUBSTRUCTURE
  1 LIG  29 GROUP 4 **** **** 0
@<TRIPOS>PROPERTY_DATA
index	|	ligand295
Name	|	MAK-UNK-176-7
ChemPlp	|	-112.223
MM-GBSA Nwat=0	|	-28.2822
STDEV0	|	3.26
MM-GBSA Nwat=30	|	-52.8696
STDEV30	|	6.1346
MM-GBSA Nwat=60	|	-64.7282
STDEV60	|	5.5985
ST.DEV < 10%	|	N
RMSD LIG < 2	|	
DIST < 5	|	
DIST < 3.5	|	N

# MOE 2019.01 (io_trps.svl 2018.10)

@<TRIPOS>MOLECULE
ligand478
55 58 1 0 0 
SMALL
NO_CHARGES


@<TRIPOS>ATOM
  1 N1       5.5000    -1.4380    18.3230 N.am  1 LIG   0.0000 
  2 C4       5.7020    -2.3740    19.3020 C.2   1 LIG   0.0000 
  3 O5       5.4760    -3.5320    19.0810 O.2   1 LIG   0.0000 
  4 C6       6.2100    -1.9480    20.6690 C.3   1 LIG   0.0000 
  5 C7       6.9300    -0.6120    20.5920 C.3   1 LIG   0.0000 
  6 C10      8.0430    -0.6680    21.6200 C.3   1 LIG   0.0000 
  7 C13      8.0020    -2.0570    22.2220 C.3   1 LIG   0.0000 
  8 C14      9.3980    -2.6010    22.4840 C.3   1 LIG   0.0000 
  9 C17      9.9740    -1.9440    23.7280 C.3   1 LIG   0.0000 
 10 N18     10.3290    -2.9790    24.7090 N.am  1 LIG   0.0000 
 11 C20      9.3860    -3.8820    25.1240 C.2   1 LIG   0.0000 
 12 O21      8.2700    -3.8280    24.6870 O.2   1 LIG   0.0000 
 13 C22      9.7540    -4.9520    26.1390 C.3   1 LIG   0.0000 
 14 CL25     8.4980    -5.0340    27.3970 Cl    1 LIG   0.0000 
 15 C26     11.2170    -1.1510    23.3540 C.ar  1 LIG   0.0000 
 16 C27     12.2230    -1.8170    22.6620 C.ar  1 LIG   0.0000 
 17 C29     13.3790    -1.1340    22.2990 C.ar  1 LIG   0.0000 
 18 C31     13.5380     0.2100    22.6220 C.ar  1 LIG   0.0000 
 19 C33     12.5360     0.8820    23.3140 C.ar  1 LIG   0.0000 
 20 C34     12.7090     2.2270    23.6280 C.ar  1 LIG   0.0000 
 21 C36     11.7040     2.8960    24.3180 C.ar  1 LIG   0.0000 
 22 C38     10.5380     2.2380    24.6950 C.ar  1 LIG   0.0000 
 23 C40     10.3950     0.8940    24.3670 C.ar  1 LIG   0.0000 
 24 C42     11.3800     0.1960    23.6750 C.ar  1 LIG   0.0000 
 25 C43      7.2720    -2.8920    21.1870 C.3   1 LIG   0.0000 
 26 C44      6.6780    -4.1610    21.7760 C.2   1 LIG   0.0000 
 27 C45      7.2530    -5.4580    21.6990 C.2   1 LIG   0.0000 
 28 C47      6.5520    -6.4620    22.2950 C.2   1 LIG   0.0000 
 29 S49      5.1740    -5.6970    22.9450 S.3   1 LIG   0.0000 
 30 C50      5.4950    -4.1000    22.4510 C.2   1 LIG   0.0000 
 31 H27     12.1160    -2.7830    22.4260 H     1 LIG   0.0000 
 32 H29     14.1030    -1.6120    21.8020 H     1 LIG   0.0000 
 33 H31     14.3730     0.6930    22.3570 H     1 LIG   0.0000 
 34 H34     13.5450     2.7060    23.3600 H     1 LIG   0.0000 
 35 H36     11.8220     3.8630    24.5460 H     1 LIG   0.0000 
 36 H38      9.8170     2.7220    25.1920 H     1 LIG   0.0000 
 37 H40      9.5590     0.4160    24.6360 H     1 LIG   0.0000 
 38 H45      8.1220    -5.6230    21.2340 H     1 LIG   0.0000 
 39 H47      6.7920    -7.4320    22.3410 H     1 LIG   0.0000 
 40 H50      4.9350    -3.2880    22.6200 H     1 LIG   0.0000 
 41 H6       5.4520    -1.8930    21.3180 H     1 LIG   0.0000 
 42 H71      6.2990     0.1340    20.8050 H     1 LIG   0.0000 
 43 H72      7.3100    -0.4760    19.6770 H     1 LIG   0.0000 
 44 H101     8.9270    -0.5080    21.1810 H     1 LIG   0.0000 
 45 H102     7.8930     0.0210    22.3290 H     1 LIG   0.0000 
 46 H13      7.4800    -2.0410    23.0750 H     1 LIG   0.0000 
 47 H141     9.3500    -3.5900    22.6210 H     1 LIG   0.0000 
 48 H142     9.9860    -2.4020    21.7000 H     1 LIG   0.0000 
 49 H17      9.2930    -1.3280    24.1250 H     1 LIG   0.0000 
 50 H221     9.8240    -5.8380    25.6790 H     1 LIG   0.0000 
 51 H222    10.6330    -4.7250    26.5590 H     1 LIG   0.0000 
 52 H43      7.9000    -3.1290    20.4460 H     1 LIG   0.0000 
 53 H11      5.6880    -0.4730    18.5080 H     1 LIG   0.0000 
 54 H12      5.1650    -1.7190    17.4240 H     1 LIG   0.0000 
 55 H18     11.2600    -3.0240    25.0730 H     1 LIG   0.0000 
@<TRIPOS>BOND
  1   1   2  am  
  2   1  53  1   
  3   1  54  1   
  4   2   3  2   
  5   2   4  1   
  6   4   5  1   
  7   4  25  1   
  8   4  41  1   
  9   5   6  1   
 10   5  42  1   
 11   5  43  1   
 12   6   7  1   
 13   6  44  1   
 14   6  45  1   
 15   7   8  1   
 16   7  25  1   
 17   7  46  1   
 18   8   9  1   
 19   8  47  1   
 20   8  48  1   
 21   9  10  1   
 22   9  15  1   
 23   9  49  1   
 24  10  11  am  
 25  10  55  1   
 26  11  12  2   
 27  11  13  1   
 28  13  14  1   
 29  13  50  1   
 30  13  51  1   
 31  15  16  ar  
 32  15  24  ar  
 33  16  17  ar  
 34  16  31  1   
 35  17  18  ar  
 36  17  32  1   
 37  18  19  ar  
 38  18  33  1   
 39  19  20  ar  
 40  19  24  ar  
 41  20  21  ar  
 42  20  34  1   
 43  21  22  ar  
 44  21  35  1   
 45  22  23  ar  
 46  22  36  1   
 47  23  24  ar  
 48  23  37  1   
 49  25  26  1   
 50  25  52  1   
 51  26  27  1   
 52  26  30  2   
 53  27  28  2   
 54  27  38  1   
 55  28  29  1   
 56  28  39  1   
 57  29  30  1   
 58  30  40  1   
@<TRIPOS>SUBSTRUCTURE
  1 LIG   8 GROUP 4 **** **** 0
@<TRIPOS>PROPERTY_DATA
index	|	ligand478
Name	|	NIR-THE-99f-1
ChemPlp	|	-97.4453
MM-GBSA Nwat=0	|	-28.4286
STDEV0	|	3.7084
MM-GBSA Nwat=30	|	-52.6099
STDEV30	|	6.1465
MM-GBSA Nwat=60	|	-55.7438
STDEV60	|	6.0196
ST.DEV < 10%	|	N
RMSD LIG < 2	|	
DIST < 5	|	
DIST < 3.5	|	N

# MOE 2019.01 (io_trps.svl 2018.10)

@<TRIPOS>MOLECULE
ligand049
54 57 1 0 0 
SMALL
USER_CHARGES


@<TRIPOS>ATOM
  1 C1      13.6420    -1.7380    22.2820 C.3   1 LIG   0.0000 
  2 H2      14.4640    -1.7370    22.8500 H     1 LIG   0.0000 
  3 H3      13.1070    -2.5620    22.4710 H     1 LIG   0.0000 
  4 H4      13.9040    -1.7260    21.3170 H     1 LIG   0.0000 
  5 C5      12.8080    -0.5100    22.5950 C.ar  1 LIG   0.0000 
  6 C6      13.2940     0.3900    23.5760 C.ar  1 LIG   0.0000 
  7 H7      14.1600     0.2050    24.0400 H     1 LIG   0.0000 
  8 C8      12.5740     1.5110    23.8890 C.ar  1 LIG   0.0000 
  9 H9      12.9000     2.1580    24.5780 H     1 LIG   0.0000 
 10 C10     11.3510     1.7260    23.2030 C.ar  1 LIG   0.0000 
 11 C11     10.4470     2.7380    23.3110 C.3   1 LIG   0.0000 
 12 C12     10.5480     3.9340    24.2450 C.1   1 LIG   0.0000 
 13 C13     10.6270     4.8710    24.9750 C.1   1 LIG   0.0000 
 14 C14     10.7270     6.0670    25.9080 C.ar  1 LIG   0.0000 
 15 C15      9.6200     6.4640    26.6520 C.ar  1 LIG   0.0000 
 16 H16      8.7600     5.9610    26.5710 H     1 LIG   0.0000 
 17 C17      9.7070     7.5570    27.5070 C.ar  1 LIG   0.0000 
 18 H18      8.9130     7.8450    28.0430 H     1 LIG   0.0000 
 19 C19     10.9110     8.2470    27.6070 C.ar  1 LIG   0.0000 
 20 F20     10.9980     9.2940    28.4230 F     1 LIG   0.0000 
 21 C21     12.0250     7.8600    26.8700 C.ar  1 LIG   0.0000 
 22 H22     12.8860     8.3630    26.9500 H     1 LIG   0.0000 
 23 C23     11.9260     6.7640    26.0180 C.ar  1 LIG   0.0000 
 24 O24     13.0000     6.3790    25.2960 O.3   1 LIG   0.0000 
 25 H25     13.8920     6.7970    25.4650 H     1 LIG   0.0000 
 26 C26      9.3940     2.4890    22.4030 C.2   1 LIG   0.0000 
 27 H27      8.5840     3.0550    22.2520 H     1 LIG   0.0000 
 28 C28      9.7070     1.3220    21.7760 C.2   1 LIG   0.0000 
 29 C29      8.8630     0.6490    20.7060 C.3   1 LIG   0.0000 
 30 H30      8.2570     1.3240    20.2860 H     1 LIG   0.0000 
 31 H31      9.4610     0.2570    20.0070 H     1 LIG   0.0000 
 32 N32      8.0590    -0.4180    21.3170 N.3   1 LIG   0.0000 
 33 C33      7.0230    -0.7850    20.3380 C.3   1 LIG   0.0000 
 34 H34      7.4660    -1.0770    19.4900 H     1 LIG   0.0000 
 35 H35      6.4500     0.0140    20.1560 H     1 LIG   0.0000 
 36 C36      6.1430    -1.9160    20.8500 C.3   1 LIG   0.0000 
 37 H37      5.5200    -1.5550    21.5430 H     1 LIG   0.0000 
 38 H38      5.6150    -2.2880    20.0870 H     1 LIG   0.0000 
 39 N39      6.9470    -2.9960    21.4460 N.am  1 LIG   0.0000 
 40 C40      6.4880    -4.3140    21.3530 C.2   1 LIG   0.0000 
 41 O41      5.4530    -4.5520    20.7940 O.2   1 LIG   0.0000 
 42 C42      7.3010    -5.4460    21.9610 C.3   1 LIG   0.0000 
 43 H43      7.7550    -5.9580    21.2330 H     1 LIG   0.0000 
 44 H44      7.9880    -5.0670    22.5810 H     1 LIG   0.0000 
 45 CL45     6.2200    -6.5320    22.8670 Cl    1 LIG   0.0000 
 46 C46      8.2240    -2.7490    22.1330 C.3   1 LIG   0.0000 
 47 H47      8.7990    -3.5640    22.0560 H     1 LIG   0.0000 
 48 H48      8.0440    -2.5580    23.0980 H     1 LIG   0.0000 
 49 C49      8.9580    -1.5650    21.5200 C.3   1 LIG   0.0000 
 50 H50      9.7000    -1.2910    22.1330 H     1 LIG   0.0000 
 51 H51      9.3380    -1.8400    20.6380 H     1 LIG   0.0000 
 52 N52     10.8940     0.8620    22.2650 N.ar  1 LIG   1.0000 
 53 C53     11.6220    -0.2580    21.9590 C.ar  1 LIG   0.0000 
 54 H54     11.2860    -0.8950    21.2660 H     1 LIG   0.0000 
@<TRIPOS>BOND
  1   1   2  1   
  2   1   3  1   
  3   1   4  1   
  4   1   5  1   
  5   5   6  ar  
  6   5  53  ar  
  7   6   7  1   
  8   6   8  ar  
  9   8   9  1   
 10   8  10  ar  
 11  10  11  1   
 12  10  52  ar  
 13  11  12  1   
 14  11  26  1   
 15  12  13  3   
 16  13  14  1   
 17  14  15  ar  
 18  14  23  ar  
 19  15  16  1   
 20  15  17  ar  
 21  17  18  1   
 22  17  19  ar  
 23  19  20  1   
 24  19  21  ar  
 25  21  22  1   
 26  21  23  ar  
 27  23  24  1   
 28  24  25  1   
 29  26  27  1   
 30  26  28  2   
 31  28  29  1   
 32  28  52  1   
 33  29  30  1   
 34  29  31  1   
 35  29  32  1   
 36  32  33  1   
 37  32  49  1   
 38  33  34  1   
 39  33  35  1   
 40  33  36  1   
 41  36  37  1   
 42  36  38  1   
 43  36  39  1   
 44  39  40  am  
 45  39  46  1   
 46  40  41  2   
 47  40  42  1   
 48  42  43  1   
 49  42  44  1   
 50  42  45  1   
 51  46  47  1   
 52  46  48  1   
 53  46  49  1   
 54  49  50  1   
 55  49  51  1   
 56  52  53  ar  
 57  53  54  1   
@<TRIPOS>SUBSTRUCTURE
  1 LIG  11 GROUP 4 **** **** 0
@<TRIPOS>PROPERTY_DATA
index	|	ligand049
Name	|	BOG-INS-84c-1
ChemPlp	|	-106.402
MM-GBSA Nwat=0	|	-39.7316
STDEV0	|	3.6438
MM-GBSA Nwat=30	|	-51.7171
STDEV30	|	5.225
MM-GBSA Nwat=60	|	-55.3528
STDEV60	|	4.9663
ST.DEV < 10%	|	N
RMSD LIG < 2	|	
DIST < 5	|	
DIST < 3.5	|	N

# MOE 2019.01 (io_trps.svl 2018.10)

@<TRIPOS>MOLECULE
ligand543
60 63 1 0 0 
SMALL
NO_CHARGES


@<TRIPOS>ATOM
  1 O1       4.8810     1.5250    19.0550 O.2   1 LIG   0.0000 
  2 C2       4.6970     1.8380    20.1990 C.2   1 LIG   0.0000 
  3 C3       3.2950     2.1810    20.6760 C.3   1 LIG   0.0000 
  4 H4       2.8660     1.3650    21.0630 H     1 LIG   0.0000 
  5 H5       3.3470     2.8940    21.3760 H     1 LIG   0.0000 
  6 CL6      2.3270     2.7670    19.3020 Cl    1 LIG   0.0000 
  7 N7       5.7720     1.8870    21.0920 N.am  1 LIG   0.0000 
  8 C8       7.1200     1.5500    20.6080 C.3   1 LIG   0.0000 
  9 H9       7.5740     2.3870    20.3010 H     1 LIG   0.0000 
 10 H10      7.0400     0.9140    19.8400 H     1 LIG   0.0000 
 11 C11      7.9600     0.9050    21.7000 C.3   1 LIG   0.0000 
 12 H12      7.6490    -0.0370    21.8340 H     1 LIG   0.0000 
 13 H13      8.9180     0.9020    21.4140 H     1 LIG   0.0000 
 14 N14      7.8430     1.6310    22.9740 N.3   1 LIG   0.0000 
 15 C15      8.6600     0.9040    23.9560 C.3   1 LIG   0.0000 
 16 H16      8.5540    -0.0800    23.8130 H     1 LIG   0.0000 
 17 H17      8.3600     1.1420    24.8800 H     1 LIG   0.0000 
 18 C18     10.1250     1.2890    23.7820 C.ar  1 LIG   0.0000 
 19 C19     10.3740     2.6200    24.0980 C.ar  1 LIG   0.0000 
 20 H20      9.6370     3.2230    24.4020 H     1 LIG   0.0000 
 21 C21     11.6780     3.0890    23.9780 C.ar  1 LIG   0.0000 
 22 CL22    11.9950     4.7920    24.3810 Cl    1 LIG   0.0000 
 23 C23     12.7200     2.2710    23.5570 C.ar  1 LIG   0.0000 
 24 H24     13.6500     2.6290    23.4790 H     1 LIG   0.0000 
 25 C25     12.4420     0.9440    23.2470 C.ar  1 LIG   0.0000 
 26 C26     13.4990     0.1440    22.8290 C.ar  1 LIG   0.0000 
 27 H27     14.4180     0.5300    22.7620 H     1 LIG   0.0000 
 28 C28     13.2850    -1.1920    22.5040 C.ar  1 LIG   0.0000 
 29 H29     14.0500    -1.7620    22.2040 H     1 LIG   0.0000 
 30 C30     12.0080    -1.7340    22.5960 C.ar  1 LIG   0.0000 
 31 H31     11.8440    -2.6920    22.3650 H     1 LIG   0.0000 
 32 C32     10.9630    -0.9180    23.0160 C.ar  1 LIG   0.0000 
 33 O33      9.7730    -1.5530    23.0690 O.3   1 LIG   0.0000 
 34 C34      9.7010    -2.8870    23.5500 C.3   1 LIG   0.0000 
 35 H35     10.0830    -2.9300    24.4730 H     1 LIG   0.0000 
 36 H36     10.2230    -3.4880    22.9450 H     1 LIG   0.0000 
 37 C37      8.2500    -3.3370    23.5820 C.3   1 LIG   0.0000 
 38 H38      8.1860    -4.2260    24.0360 H     1 LIG   0.0000 
 39 H39      7.7040    -2.6670    24.0840 H     1 LIG   0.0000 
 40 N40      7.7410    -3.4520    22.2050 N.3   1 LIG   0.0000 
 41 C41      7.2050    -4.7920    21.9260 C.3   1 LIG   0.0000 
 42 H42      6.4490    -4.9810    22.5530 H     1 LIG   0.0000 
 43 H43      7.9270    -5.4710    22.0610 H     1 LIG   0.0000 
 44 C44      6.7000    -4.8750    20.4940 C.3   1 LIG   0.0000 
 45 H45      7.4660    -4.7360    19.8670 H     1 LIG   0.0000 
 46 H46      6.3010    -5.7780    20.3370 H     1 LIG   0.0000 
 47 O47      5.7140    -3.8800    20.2590 O.3   1 LIG   0.0000 
 48 C48      6.2080    -2.5700    20.5000 C.3   1 LIG   0.0000 
 49 H49      5.4740    -1.9070    20.3460 H     1 LIG   0.0000 
 50 H50      6.9640    -2.3810    19.8730 H     1 LIG   0.0000 
 51 C51      6.7020    -2.4470    21.9320 C.3   1 LIG   0.0000 
 52 H52      7.0840    -1.5330    22.0720 H     1 LIG   0.0000 
 53 H53      5.9360    -2.5880    22.5590 H     1 LIG   0.0000 
 54 C54     11.1500     0.4300    23.3510 C.ar  1 LIG   0.0000 
 55 C55      6.4510     1.5610    23.4440 C.3   1 LIG   0.0000 
 56 H56      6.3890     1.9960    24.3430 H     1 LIG   0.0000 
 57 H57      6.1810     0.6010    23.5190 H     1 LIG   0.0000 
 58 C58      5.5010     2.2680    22.4870 C.3   1 LIG   0.0000 
 59 H59      4.5610     2.0180    22.7170 H     1 LIG   0.0000 
 60 H60      5.6170     3.2560    22.5840 H     1 LIG   0.0000 
@<TRIPOS>BOND
  1   1   2  2   
  2   2   3  1   
  3   2   7  am  
  4   3   4  1   
  5   3   5  1   
  6   3   6  1   
  7   7   8  1   
  8   7  58  1   
  9   8   9  1   
 10   8  10  1   
 11   8  11  1   
 12  11  12  1   
 13  11  13  1   
 14  11  14  1   
 15  14  15  1   
 16  14  55  1   
 17  15  16  1   
 18  15  17  1   
 19  15  18  1   
 20  18  19  ar  
 21  18  54  ar  
 22  19  20  1   
 23  19  21  ar  
 24  21  22  1   
 25  21  23  ar  
 26  23  24  1   
 27  23  25  ar  
 28  25  26  ar  
 29  25  54  ar  
 30  26  27  1   
 31  26  28  ar  
 32  28  29  1   
 33  28  30  ar  
 34  30  31  1   
 35  30  32  ar  
 36  32  33  1   
 37  32  54  ar  
 38  33  34  1   
 39  34  35  1   
 40  34  36  1   
 41  34  37  1   
 42  37  38  1   
 43  37  39  1   
 44  37  40  1   
 45  40  41  1   
 46  40  51  1   
 47  41  42  1   
 48  41  43  1   
 49  41  44  1   
 50  44  45  1   
 51  44  46  1   
 52  44  47  1   
 53  47  48  1   
 54  48  49  1   
 55  48  50  1   
 56  48  51  1   
 57  51  52  1   
 58  51  53  1   
 59  55  56  1   
 60  55  57  1   
 61  55  58  1   
 62  58  59  1   
 63  58  60  1   
@<TRIPOS>SUBSTRUCTURE
  1 LIG  11 GROUP 4 **** **** 0
@<TRIPOS>PROPERTY_DATA
index	|	ligand543
Name	|	SEA-TRI-67e-1
ChemPlp	|	-96.7141
MM-GBSA Nwat=0	|	-43.6681
STDEV0	|	3.9658
MM-GBSA Nwat=30	|	-51.6834
STDEV30	|	5.1751
MM-GBSA Nwat=60	|	-51.586
STDEV60	|	4.5499
ST.DEV < 10%	|	N
RMSD LIG < 2	|	
DIST < 5	|	
DIST < 3.5	|	N

# MOE 2019.01 (io_trps.svl 2018.10)

@<TRIPOS>MOLECULE
ligand377
79 82 1 0 0 
SMALL
USER_CHARGES


@<TRIPOS>ATOM
  1 C1       5.3740     8.3100    20.7250 C.3   1 LIG   0.0000 
  2 C5       6.4060     7.8440    21.7400 C.ar  1 LIG   0.0000 
  3 C6       6.4860     8.4790    22.9740 C.ar  1 LIG   0.0000 
  4 C8       7.4280     8.0560    23.9060 C.ar  1 LIG   0.0000 
  5 C10      8.2780     7.0010    23.5900 C.ar  1 LIG   0.0000 
  6 O11      9.1940     6.5870    24.4910 O.3   1 LIG   0.0000 
  7 C12      9.2380     7.1780    25.7820 C.3   1 LIG   0.0000 
  8 C15     10.3000     6.4850    26.6200 C.3   1 LIG   0.0000 
  9 C18     11.6770     6.9720    26.1990 C.3   1 LIG   0.0000 
 10 C21     11.9340     6.5750    24.7540 C.3   1 LIG   0.0000 
 11 C24     12.0980     5.0680    24.6650 C.3   1 LIG   0.0000 
 12 N25     10.7950     4.4040    24.5160 N.4   1 LIG   1.0000 
 13 C28     10.9080     2.9360    24.5870 C.3   1 LIG   0.0000 
 14 C31     12.2570     2.4420    24.0850 C.3   1 LIG   0.0000 
 15 C32     12.1420     0.9780    23.6920 C.ar  1 LIG   0.0000 
 16 C33     13.0360     0.4440    22.7700 C.ar  1 LIG   0.0000 
 17 C35     12.9180    -0.8960    22.4180 C.ar  1 LIG   0.0000 
 18 C36     13.8900    -1.4900    21.4120 C.3   1 LIG   0.0000 
 19 C40     11.9290    -1.7020    22.9730 C.ar  1 LIG   0.0000 
 20 C42     11.0480    -1.1430    23.8930 C.ar  1 LIG   0.0000 
 21 C43      9.9620    -2.0110    24.5060 C.3   1 LIG   0.0000 
 22 N46      9.4700    -2.9630    23.5000 N.4   1 LIG   1.0000 
 23 C48      8.5190    -3.8570    24.1820 C.3   1 LIG   0.0000 
 24 C51      7.9020    -4.8650    23.2240 C.3   1 LIG   0.0000 
 25 N54      7.4680    -4.2260    21.9720 N.am  1 LIG   0.0000 
 26 C55      6.3440    -4.7400    21.3140 C.2   1 LIG   0.0000 
 27 O56      5.9670    -4.2400    20.2910 O.2   1 LIG   0.0000 
 28 C57      5.6020    -5.9320    21.8970 C.3   1 LIG   0.0000 
 29 CL60     4.3990    -5.3620    23.0780 Cl    1 LIG   0.0000 
 30 C61      8.1610    -3.0640    21.3940 C.3   1 LIG   0.0000 
 31 C64      8.7680    -2.1770    22.4720 C.3   1 LIG   0.0000 
 32 C67     11.1430     0.1950    24.2610 C.ar  1 LIG   0.0000 
 33 C69     12.6630     3.2950    22.8970 C.3   1 LIG   0.0000 
 34 C72     12.9300     4.6800    23.4550 C.2   1 LIG   0.0000 
 35 O73     13.7600     5.4230    22.9570 O.2   1 LIG   0.0000 
 36 C74      8.2020     6.3620    22.3560 C.ar  1 LIG   0.0000 
 37 C76      7.2580     6.7900    21.4290 C.ar  1 LIG   0.0000 
 38 H6       5.8700     9.2370    23.1910 H     1 LIG   0.0000 
 39 H8       7.4940     8.5070    24.7960 H     1 LIG   0.0000 
 40 H74      8.8180     5.6060    22.1390 H     1 LIG   0.0000 
 41 H76      7.1920     6.3390    20.5390 H     1 LIG   0.0000 
 42 H33     13.7500     1.0150    22.3660 H     1 LIG   0.0000 
 43 H40     11.8520    -2.6650    22.7140 H     1 LIG   0.0000 
 44 H67     10.5050     0.5860    24.9240 H     1 LIG   0.0000 
 45 H11      5.4460     7.7550    19.8970 H     1 LIG   0.0000 
 46 H12      4.4570     8.2130    21.1130 H     1 LIG   0.0000 
 47 H13      5.5390     9.2700    20.4980 H     1 LIG   0.0000 
 48 H121     8.3470     7.0790    26.2240 H     1 LIG   0.0000 
 49 H122     9.4620     8.1490    25.6960 H     1 LIG   0.0000 
 50 H151    10.2400     5.4960    26.4830 H     1 LIG   0.0000 
 51 H152    10.1530     6.6970    27.5860 H     1 LIG   0.0000 
 52 H181    11.7180     7.9680    26.2830 H     1 LIG   0.0000 
 53 H182    12.3710     6.5580    26.7870 H     1 LIG   0.0000 
 54 H211    11.1620     6.8600    24.1870 H     1 LIG   0.0000 
 55 H212    12.7690     7.0210    24.4300 H     1 LIG   0.0000 
 56 H24     12.5470     4.7340    25.4940 H     1 LIG   0.0000 
 57 H251    10.4040     4.6540    23.6300 H     1 LIG   0.0000 
 58 H252    10.1890     4.7150    25.2480 H     1 LIG   0.0000 
 59 H281    10.1870     2.5290    24.0260 H     1 LIG   0.0000 
 60 H282    10.7930     2.6480    25.5370 H     1 LIG   0.0000 
 61 H31     12.9380     2.5380    24.8110 H     1 LIG   0.0000 
 62 H361    13.6740    -2.4560    21.2690 H     1 LIG   0.0000 
 63 H362    13.8130    -0.9990    20.5440 H     1 LIG   0.0000 
 64 H363    14.8240    -1.4060    21.7600 H     1 LIG   0.0000 
 65 H431    10.3370    -2.5140    25.2850 H     1 LIG   0.0000 
 66 H432     9.2070    -1.4330    24.8140 H     1 LIG   0.0000 
 67 H46     10.2250    -3.4830    23.0990 H     1 LIG   0.0000 
 68 H481     7.7890    -3.3050    24.5840 H     1 LIG   0.0000 
 69 H482     9.0010    -4.3510    24.9050 H     1 LIG   0.0000 
 70 H511     8.5800    -5.5690    23.0120 H     1 LIG   0.0000 
 71 H512     7.1090    -5.2880    23.6650 H     1 LIG   0.0000 
 72 H571     5.1390    -6.4280    21.1620 H     1 LIG   0.0000 
 73 H572     6.2530    -6.5410    22.3500 H     1 LIG   0.0000 
 74 H611     7.5050    -2.5260    20.8630 H     1 LIG   0.0000 
 75 H612     8.8910    -3.3880    20.7920 H     1 LIG   0.0000 
 76 H641     9.4180    -1.5490    22.0450 H     1 LIG   0.0000 
 77 H642     8.0370    -1.6530    22.9090 H     1 LIG   0.0000 
 78 H691    13.4880     2.9260    22.4700 H     1 LIG   0.0000 
 79 H692    11.9240     3.3270    22.2240 H     1 LIG   0.0000 
@<TRIPOS>BOND
  1   1   2  1   
  2   1  45  1   
  3   1  46  1   
  4   1  47  1   
  5   2   3  ar  
  6   2  37  ar  
  7   3   4  ar  
  8   3  38  1   
  9   4   5  ar  
 10   4  39  1   
 11   5   6  1   
 12   5  36  ar  
 13   6   7  1   
 14   7   8  1   
 15   7  48  1   
 16   7  49  1   
 17   8   9  1   
 18   8  50  1   
 19   8  51  1   
 20   9  10  1   
 21   9  52  1   
 22   9  53  1   
 23  10  11  1   
 24  10  54  1   
 25  10  55  1   
 26  11  12  1   
 27  11  34  1   
 28  11  56  1   
 29  12  13  1   
 30  12  57  1   
 31  12  58  1   
 32  13  14  1   
 33  13  59  1   
 34  13  60  1   
 35  14  15  1   
 36  14  33  1   
 37  14  61  1   
 38  15  16  ar  
 39  15  32  ar  
 40  16  17  ar  
 41  16  42  1   
 42  17  18  1   
 43  17  19  ar  
 44  18  62  1   
 45  18  63  1   
 46  18  64  1   
 47  19  20  ar  
 48  19  43  1   
 49  20  21  1   
 50  20  32  ar  
 51  21  22  1   
 52  21  65  1   
 53  21  66  1   
 54  22  23  1   
 55  22  31  1   
 56  22  67  1   
 57  23  24  1   
 58  23  68  1   
 59  23  69  1   
 60  24  25  1   
 61  24  70  1   
 62  24  71  1   
 63  25  26  am  
 64  25  30  1   
 65  26  27  2   
 66  26  28  1   
 67  28  29  1   
 68  28  72  1   
 69  28  73  1   
 70  30  31  1   
 71  30  74  1   
 72  30  75  1   
 73  31  76  1   
 74  31  77  1   
 75  32  44  1   
 76  33  34  1   
 77  33  78  1   
 78  33  79  1   
 79  34  35  2   
 80  36  37  ar  
 81  36  40  1   
 82  37  41  1   
@<TRIPOS>SUBSTRUCTURE
  1 LIG  13 GROUP 4 **** **** 0
@<TRIPOS>PROPERTY_DATA
index	|	ligand377
Name	|	MAK-UNK-af8-33
ChemPlp	|	-125.11
MM-GBSA Nwat=0	|	-29.8982
STDEV0	|	3.9167
MM-GBSA Nwat=30	|	-51.682
STDEV30	|	7.1239
MM-GBSA Nwat=60	|	-80.759
STDEV60	|	6.4032
ST.DEV < 10%	|	N
RMSD LIG < 2	|	
DIST < 5	|	
DIST < 3.5	|	N

# MOE 2019.01 (io_trps.svl 2018.10)

@<TRIPOS>MOLECULE
ligand464
62 64 1 0 0 
SMALL
NO_CHARGES


@<TRIPOS>ATOM
  1 C1       3.7010     3.2480    23.2190 C.3   1 LIG   0.0000 
  2 H2       3.7810     3.7670    24.0700 H     1 LIG   0.0000 
  3 H3       2.9680     3.6350    22.6600 H     1 LIG   0.0000 
  4 H4       3.4910     2.2930    23.4300 H     1 LIG   0.0000 
  5 C5       5.0140     3.3210    22.4560 C.2   1 LIG   0.0000 
  6 O6       5.1270     2.7600    21.4020 O.2   1 LIG   0.0000 
  7 N7       6.0680     4.0270    22.9730 N.am  1 LIG   0.0000 
  8 H8       5.9740     4.4950    23.8520 H     1 LIG   0.0000 
  9 C9       7.3370     4.0980    22.2350 C.3   1 LIG   0.0000 
 10 C10      8.2410     5.1360    22.8800 C.3   1 LIG   0.0000 
 11 H11      8.3920     4.8970    23.8390 H     1 LIG   0.0000 
 12 H12      9.1180     5.1580    22.4000 H     1 LIG   0.0000 
 13 C13      7.5830     6.5030    22.7960 C.ar  1 LIG   0.0000 
 14 C14      6.9630     6.8930    21.6130 C.ar  1 LIG   0.0000 
 15 H15      6.9520     6.2770    20.8250 H     1 LIG   0.0000 
 16 C16      6.3580     8.1430    21.5320 C.ar  1 LIG   0.0000 
 17 H17      5.9100     8.4320    20.6860 H     1 LIG   0.0000 
 18 C18      6.3810     8.9880    22.6370 C.ar  1 LIG   0.0000 
 19 O19      5.7960    10.2020    22.5630 O.3   1 LIG   0.0000 
 20 H20      6.1380    10.8840    21.9160 H     1 LIG   0.0000 
 21 C21      7.0000     8.6040    23.8220 C.ar  1 LIG   0.0000 
 22 H22      7.0110     9.2190    24.6100 H     1 LIG   0.0000 
 23 C23      7.6020     7.3520    23.8980 C.ar  1 LIG   0.0000 
 24 H24      8.0500     7.0630    24.7440 H     1 LIG   0.0000 
 25 C25      8.0200     2.7400    22.2700 C.2   1 LIG   0.0000 
 26 O26      7.6930     1.9250    23.0880 O.2   1 LIG   0.0000 
 27 N27      9.0080     2.4470    21.3670 N.am  1 LIG   0.0000 
 28 H28      9.2800     3.1260    20.6860 H     1 LIG   0.0000 
 29 C29      9.6680     1.1340    21.4010 C.3   1 LIG   0.0000 
 30 C30     10.7400     1.1330    22.4790 C.ar  1 LIG   0.0000 
 31 C31     10.5620     1.8980    23.6270 C.ar  1 LIG   0.0000 
 32 H32      9.7350     2.4460    23.7440 H     1 LIG   0.0000 
 33 C33     11.5460     1.8950    24.6110 C.ar  1 LIG   0.0000 
 34 H34     11.4270     2.4430    25.4390 H     1 LIG   0.0000 
 35 C35     12.6950     1.1290    24.4440 C.ar  1 LIG   0.0000 
 36 H36     13.4010     1.1260    25.1520 H     1 LIG   0.0000 
 37 C37     12.8610     0.3680    23.2930 C.ar  1 LIG   0.0000 
 38 H38     13.6880    -0.1810    23.1770 H     1 LIG   0.0000 
 39 C39     11.8850     0.3630    22.3020 C.ar  1 LIG   0.0000 
 40 H40     12.0050    -0.1850    21.4740 H     1 LIG   0.0000 
 41 N41      8.6740     0.0940    21.6970 N.3   1 LIG   0.0000 
 42 C42      7.7020     0.1050    20.5930 C.3   1 LIG   0.0000 
 43 H43      8.1850    -0.0610    19.7330 H     1 LIG   0.0000 
 44 H44      7.2600     1.0020    20.5590 H     1 LIG   0.0000 
 45 C45      6.6350    -0.9640    20.7740 C.3   1 LIG   0.0000 
 46 H46      5.9980    -0.6710    21.4870 H     1 LIG   0.0000 
 47 H47      6.1400    -1.0790    19.9120 H     1 LIG   0.0000 
 48 N48      7.2260    -2.2550    21.1620 N.am  1 LIG   0.0000 
 49 C49      6.6100    -3.4380    20.7420 C.2   1 LIG   0.0000 
 50 O50      5.6140    -3.3920    20.0740 O.2   1 LIG   0.0000 
 51 C51      7.2030    -4.7830    21.1300 C.3   1 LIG   0.0000 
 52 H52      7.7610    -5.1310    20.3770 H     1 LIG   0.0000 
 53 H53      7.7730    -4.6730    21.9440 H     1 LIG   0.0000 
 54 CL54     5.8890    -5.9330    21.4760 Cl    1 LIG   0.0000 
 55 C55      8.4500    -2.3560    21.9720 C.3   1 LIG   0.0000 
 56 H56      8.9180    -3.2120    21.7510 H     1 LIG   0.0000 
 57 H57      8.2020    -2.3520    22.9400 H     1 LIG   0.0000 
 58 C58      9.3900    -1.1920    21.6960 C.3   1 LIG   0.0000 
 59 H59     10.0970    -1.1700    22.4030 H     1 LIG   0.0000 
 60 H60      9.8180    -1.3240    20.8010 H     1 LIG   0.0000 
 61 H61      7.1570     4.3560    21.2860 H     1 LIG   0.0000 
 62 H62     10.0890     0.9490    20.5130 H     1 LIG   0.0000 
@<TRIPOS>BOND
  1   1   2  1   
  2   1   3  1   
  3   1   4  1   
  4   1   5  1   
  5   5   6  2   
  6   5   7  am  
  7   7   8  1   
  8   7   9  1   
  9   9  10  1   
 10   9  25  1   
 11   9  61  1   
 12  10  11  1   
 13  10  12  1   
 14  10  13  1   
 15  13  14  ar  
 16  13  23  ar  
 17  14  15  1   
 18  14  16  ar  
 19  16  17  1   
 20  16  18  ar  
 21  18  19  1   
 22  18  21  ar  
 23  19  20  1   
 24  21  22  1   
 25  21  23  ar  
 26  23  24  1   
 27  25  26  2   
 28  25  27  am  
 29  27  28  1   
 30  27  29  1   
 31  29  30  1   
 32  29  41  1   
 33  29  62  1   
 34  30  31  ar  
 35  30  39  ar  
 36  31  32  1   
 37  31  33  ar  
 38  33  34  1   
 39  33  35  ar  
 40  35  36  1   
 41  35  37  ar  
 42  37  38  1   
 43  37  39  ar  
 44  39  40  1   
 45  41  42  1   
 46  41  58  1   
 47  42  43  1   
 48  42  44  1   
 49  42  45  1   
 50  45  46  1   
 51  45  47  1   
 52  45  48  1   
 53  48  49  am  
 54  48  55  1   
 55  49  50  2   
 56  49  51  1   
 57  51  52  1   
 58  51  53  1   
 59  51  54  1   
 60  55  56  1   
 61  55  57  1   
 62  55  58  1   
 63  58  59  1   
 64  58  60  1   
@<TRIPOS>SUBSTRUCTURE
  1 LIG  25 GROUP 4 **** **** 0
@<TRIPOS>PROPERTY_DATA
index	|	ligand464
Name	|	NIM-UNI-ed9-3
ChemPlp	|	-106.144
MM-GBSA Nwat=0	|	-23.2343
STDEV0	|	2.8033
MM-GBSA Nwat=30	|	-51.5502
STDEV30	|	9.7041
MM-GBSA Nwat=60	|	-76.1627
STDEV60	|	12.3722
ST.DEV < 10%	|	N
RMSD LIG < 2	|	
DIST < 5	|	
DIST < 3.5	|	N

# MOE 2019.01 (io_trps.svl 2018.10)

@<TRIPOS>MOLECULE
ligand401
67 69 1 0 0 
SMALL
USER_CHARGES


@<TRIPOS>ATOM
  1 C1      13.3790    -0.5400    22.0600 C.3   1 LIG   0.0000 
  2 C5      12.2860    -0.3360    23.0960 C.ar  1 LIG   0.0000 
  3 C6      11.5240    -1.4300    23.4970 C.ar  1 LIG   0.0000 
  4 C8      10.5210    -1.2520    24.4440 C.ar  1 LIG   0.0000 
  5 C9       9.6860    -2.4440    24.8840 C.3   1 LIG   0.0000 
  6 N12      9.2950    -3.2300    23.7050 N.4   1 LIG   1.0000 
  7 C14      8.4150    -4.3100    24.1800 C.3   1 LIG   0.0000 
  8 C17      7.9030    -5.1710    23.0350 C.3   1 LIG   0.0000 
  9 N20      7.4350    -4.3480    21.9090 N.am  1 LIG   0.0000 
 10 C21      6.3710    -4.8220    21.1320 C.2   1 LIG   0.0000 
 11 O22      5.9670    -4.1730    20.2070 O.2   1 LIG   0.0000 
 12 C23      5.7260    -6.1580    21.4620 C.3   1 LIG   0.0000 
 13 CL26     5.3720    -6.2330    23.2040 Cl    1 LIG   0.0000 
 14 C27      8.0330    -3.0440    21.5760 C.3   1 LIG   0.0000 
 15 C30      8.5430    -2.3270    22.8170 C.3   1 LIG   0.0000 
 16 C33     10.2720     0.0020    24.9920 C.ar  1 LIG   0.0000 
 17 C35     11.0380     1.0910    24.5870 C.ar  1 LIG   0.0000 
 18 C37     12.0420     0.9210    23.6400 C.ar  1 LIG   0.0000 
 19 N38     12.8100     2.0200    23.2350 N.pl3 1 LIG   0.0000 
 20 C40     12.7000     3.2980    23.9540 C.3   1 LIG   0.0000 
 21 C43     11.9030     4.2840    23.1150 C.3   1 LIG   0.0000 
 22 N46     10.5480     3.7570    22.8950 N.3   1 LIG   0.0000 
 23 C49      9.5840     4.5420    23.6790 C.3   1 LIG   0.0000 
 24 N52      8.5020     5.0110    22.7980 N.3   1 LIG   0.0000 
 25 C54      8.4620     6.4810    22.7570 C.3   1 LIG   0.0000 
 26 C57      7.3610     6.9610    21.8250 C.3   1 LIG   0.0000 
 27 C60      6.0160     6.4170    22.2790 C.3   1 LIG   0.0000 
 28 O62      4.9880     6.8500    21.4000 O.3   1 LIG   0.0000 
 29 C64      6.0990     4.8990    22.2950 C.3   1 LIG   0.0000 
 30 C67      7.2140     4.4420    23.2220 C.3   1 LIG   0.0000 
 31 H6      11.6970    -2.3340    23.1070 H     1 LIG   0.0000 
 32 H33      9.5490     0.1200    25.6730 H     1 LIG   0.0000 
 33 H35     10.8650     1.9960    24.9760 H     1 LIG   0.0000 
 34 H11     13.4060    -1.5020    21.7880 H     1 LIG   0.0000 
 35 H12     13.1900     0.0280    21.2590 H     1 LIG   0.0000 
 36 H13     14.2620    -0.2800    22.4520 H     1 LIG   0.0000 
 37 H91     10.2240    -3.0170    25.5030 H     1 LIG   0.0000 
 38 H92      8.8660    -2.1210    25.3560 H     1 LIG   0.0000 
 39 H12     10.0990    -3.6010    23.2390 H     1 LIG   0.0000 
 40 H141     7.6330    -3.9050    24.6550 H     1 LIG   0.0000 
 41 H142     8.9270    -4.8880    24.8150 H     1 LIG   0.0000 
 42 H171     8.6430    -5.7640    22.7180 H     1 LIG   0.0000 
 43 H172     7.1440    -5.7320    23.3650 H     1 LIG   0.0000 
 44 H231     4.8760    -6.2550    20.9440 H     1 LIG   0.0000 
 45 H232     6.3520    -6.8990    21.2170 H     1 LIG   0.0000 
 46 H271     7.3410    -2.4740    21.1330 H     1 LIG   0.0000 
 47 H272     8.7970    -3.1890    20.9480 H     1 LIG   0.0000 
 48 H301     9.1430    -1.5790    22.5340 H     1 LIG   0.0000 
 49 H302     7.7620    -1.9560    23.3200 H     1 LIG   0.0000 
 50 H401    13.6150     3.6650    24.1210 H     1 LIG   0.0000 
 51 H402    12.2360     3.1500    24.8270 H     1 LIG   0.0000 
 52 H431    11.8460     5.1590    23.5940 H     1 LIG   0.0000 
 53 H432    12.3570     4.4150    22.2340 H     1 LIG   0.0000 
 54 H491     9.2000     3.9710    24.4040 H     1 LIG   0.0000 
 55 H492    10.0480     5.3290    24.0860 H     1 LIG   0.0000 
 56 H541     9.3420     6.8250    22.4300 H     1 LIG   0.0000 
 57 H542     8.2880     6.8310    23.6770 H     1 LIG   0.0000 
 58 H571     7.3330     7.9610    21.8340 H     1 LIG   0.0000 
 59 H572     7.5500     6.6420    20.8960 H     1 LIG   0.0000 
 60 H60      5.8210     6.7470    23.2020 H     1 LIG   0.0000 
 61 H641     6.2830     4.5690    21.3700 H     1 LIG   0.0000 
 62 H642     5.2290     4.5240    22.6160 H     1 LIG   0.0000 
 63 H671     7.0120     4.7430    24.1540 H     1 LIG   0.0000 
 64 H672     7.2730     3.4440    23.2000 H     1 LIG   0.0000 
 65 H38     13.4330     1.9350    22.4570 H     1 LIG   0.0000 
 66 H46     10.3200     3.8210    21.9240 H     1 LIG   0.0000 
 67 H62      4.7370     6.1010    20.7870 H     1 LIG   0.0000 
@<TRIPOS>BOND
  1   1   2  1   
  2   1  34  1   
  3   1  35  1   
  4   1  36  1   
  5   2   3  ar  
  6   2  18  ar  
  7   3   4  ar  
  8   3  31  1   
  9   4   5  1   
 10   4  16  ar  
 11   5   6  1   
 12   5  37  1   
 13   5  38  1   
 14   6   7  1   
 15   6  15  1   
 16   6  39  1   
 17   7   8  1   
 18   7  40  1   
 19   7  41  1   
 20   8   9  1   
 21   8  42  1   
 22   8  43  1   
 23   9  10  am  
 24   9  14  1   
 25  10  11  2   
 26  10  12  1   
 27  12  13  1   
 28  12  44  1   
 29  12  45  1   
 30  14  15  1   
 31  14  46  1   
 32  14  47  1   
 33  15  48  1   
 34  15  49  1   
 35  16  17  ar  
 36  16  32  1   
 37  17  18  ar  
 38  17  33  1   
 39  18  19  1   
 40  19  20  1   
 41  19  65  1   
 42  20  21  1   
 43  20  50  1   
 44  20  51  1   
 45  21  22  1   
 46  21  52  1   
 47  21  53  1   
 48  22  23  1   
 49  22  66  1   
 50  23  24  1   
 51  23  54  1   
 52  23  55  1   
 53  24  25  1   
 54  24  30  1   
 55  25  26  1   
 56  25  56  1   
 57  25  57  1   
 58  26  27  1   
 59  26  58  1   
 60  26  59  1   
 61  27  28  1   
 62  27  29  1   
 63  27  60  1   
 64  28  67  1   
 65  29  30  1   
 66  29  61  1   
 67  29  62  1   
 68  30  63  1   
 69  30  64  1   
@<TRIPOS>SUBSTRUCTURE
  1 LIG  16 GROUP 4 **** **** 0
@<TRIPOS>PROPERTY_DATA
index	|	ligand401
Name	|	MAK-UNK-e4a-18
ChemPlp	|	-102.667
MM-GBSA Nwat=0	|	-22.1851
STDEV0	|	3.253
MM-GBSA Nwat=30	|	-51.4439
STDEV30	|	7.1407
MM-GBSA Nwat=60	|	-73.2164
STDEV60	|	6.5151
ST.DEV < 10%	|	N
RMSD LIG < 2	|	
DIST < 5	|	
DIST < 3.5	|	N

# MOE 2019.01 (io_trps.svl 2018.10)

@<TRIPOS>MOLECULE
ligand367
65 67 1 0 0 
SMALL
USER_CHARGES


@<TRIPOS>ATOM
  1 C1      11.4060     0.6940    24.9740 C.3   1 LIG   0.0000 
  2 C5      12.2130     0.6650    23.6840 C.3   1 LIG   0.0000 
  3 C6      11.4070     0.0950    22.5270 C.3   1 LIG   0.0000 
  4 C9      10.2210     0.9860    22.1900 C.3   1 LIG   0.0000 
  5 C10      9.4000     0.3850    21.0630 C.3   1 LIG   0.0000 
  6 N13      8.4920    -0.6350    21.6070 N.4   1 LIG   1.0000 
  7 C15      7.4260    -0.8370    20.6120 C.3   1 LIG   0.0000 
  8 C18      6.4420    -1.9130    21.0440 C.3   1 LIG   0.0000 
  9 N21      7.1360    -3.1040    21.5600 N.am  1 LIG   0.0000 
 10 C22      6.5480    -4.3580    21.3590 C.2   1 LIG   0.0000 
 11 O23      5.5020    -4.4440    20.7780 O.2   1 LIG   0.0000 
 12 C24      7.2360    -5.6110    21.8770 C.3   1 LIG   0.0000 
 13 CL27     6.1020    -6.5310    22.8950 Cl    1 LIG   0.0000 
 14 C28      8.4260    -3.0270    22.2650 C.3   1 LIG   0.0000 
 15 C31      9.2770    -1.8720    21.7560 C.3   1 LIG   0.0000 
 16 C34     10.6960     2.3780    21.8110 C.3   1 LIG   0.0000 
 17 C37     11.5130     2.9630    22.9510 C.3   1 LIG   0.0000 
 18 N38     11.9760     4.3120    22.5960 N.4   1 LIG   1.0000 
 19 C41     11.6640     5.2400    23.6920 C.3   1 LIG   0.0000 
 20 C44     10.1780     5.1730    24.0070 C.3   1 LIG   0.0000 
 21 N47      9.4070     5.4690    22.7910 N.pl3 1 LIG   0.0000 
 22 C49      8.4080     6.4490    22.8180 C.ar  1 LIG   0.0000 
 23 C50      7.5990     6.5930    21.6940 C.ar  1 LIG   0.0000 
 24 C52      6.6020     7.5620    21.7050 C.ar  1 LIG   0.0000 
 25 C54      6.4230     8.3680    22.8240 C.ar  1 LIG   0.0000 
 26 C55      5.3290     9.4260    22.8260 C.1   1 LIG   0.0000 
 27 N56      4.5100    10.2180    22.8260 N.1   1 LIG   0.0000 
 28 C57      7.2640     8.1740    23.9150 C.ar  1 LIG   0.0000 
 29 N59      8.2220     7.2360    23.8890 N.ar  1 LIG   0.0000 
 30 C60     12.6870     2.0520    23.2780 C.3   1 LIG   0.0000 
 31 H50      7.7340     6.0100    20.8930 H     1 LIG   0.0000 
 32 H52      6.0120     7.6800    20.9060 H     1 LIG   0.0000 
 33 H57      7.1540     8.7420    24.7310 H     1 LIG   0.0000 
 34 H11     11.1140    -0.2340    25.2060 H     1 LIG   0.0000 
 35 H12     11.9720     1.0600    25.7130 H     1 LIG   0.0000 
 36 H13     10.6020     1.2760    24.8510 H     1 LIG   0.0000 
 37 H5      13.0160     0.0860    23.8260 H     1 LIG   0.0000 
 38 H61     11.9970     0.0220    21.7230 H     1 LIG   0.0000 
 39 H62     11.0720    -0.8130    22.7780 H     1 LIG   0.0000 
 40 H9       9.6400     1.0590    23.0010 H     1 LIG   0.0000 
 41 H101     8.8660     1.1040    20.6190 H     1 LIG   0.0000 
 42 H102    10.0120    -0.0370    20.3940 H     1 LIG   0.0000 
 43 H13      8.1120    -0.3440    22.4850 H     1 LIG   0.0000 
 44 H151     7.8420    -1.1090    19.7440 H     1 LIG   0.0000 
 45 H152     6.9310     0.0230    20.4890 H     1 LIG   0.0000 
 46 H181     5.8520    -1.5440    21.7630 H     1 LIG   0.0000 
 47 H182     5.8840    -2.1780    20.2580 H     1 LIG   0.0000 
 48 H241     7.5240    -6.1760    21.1050 H     1 LIG   0.0000 
 49 H242     8.0350    -5.3520    22.4190 H     1 LIG   0.0000 
 50 H281     8.9230    -3.8830    22.1240 H     1 LIG   0.0000 
 51 H282     8.2540    -2.8980    23.2420 H     1 LIG   0.0000 
 52 H311    10.0190    -1.7080    22.4060 H     1 LIG   0.0000 
 53 H312     9.6610    -2.1210    20.8670 H     1 LIG   0.0000 
 54 H341    11.2620     2.3240    20.9880 H     1 LIG   0.0000 
 55 H342     9.9050     2.9630    21.6330 H     1 LIG   0.0000 
 56 H37     10.9280     3.0300    23.7590 H     1 LIG   0.0000 
 57 H381    11.5140     4.6130    21.7620 H     1 LIG   0.0000 
 58 H382    12.9640     4.2960    22.4440 H     1 LIG   0.0000 
 59 H411    11.9050     6.1720    23.4190 H     1 LIG   0.0000 
 60 H412    12.1880     4.9850    24.5050 H     1 LIG   0.0000 
 61 H441     9.9480     4.2560    24.3330 H     1 LIG   0.0000 
 62 H442     9.9570     5.8440    24.7140 H     1 LIG   0.0000 
 63 H601    13.2080     2.4520    24.0320 H     1 LIG   0.0000 
 64 H602    13.2730     1.9740    22.4720 H     1 LIG   0.0000 
 65 H47      9.5950     4.9700    21.9450 H     1 LIG   0.0000 
@<TRIPOS>BOND
  1   1   2  1   
  2   1  34  1   
  3   1  35  1   
  4   1  36  1   
  5   2   3  1   
  6   2  30  1   
  7   2  37  1   
  8   3   4  1   
  9   3  38  1   
 10   3  39  1   
 11   4   5  1   
 12   4  16  1   
 13   4  40  1   
 14   5   6  1   
 15   5  41  1   
 16   5  42  1   
 17   6   7  1   
 18   6  15  1   
 19   6  43  1   
 20   7   8  1   
 21   7  44  1   
 22   7  45  1   
 23   8   9  1   
 24   8  46  1   
 25   8  47  1   
 26   9  10  am  
 27   9  14  1   
 28  10  11  2   
 29  10  12  1   
 30  12  13  1   
 31  12  48  1   
 32  12  49  1   
 33  14  15  1   
 34  14  50  1   
 35  14  51  1   
 36  15  52  1   
 37  15  53  1   
 38  16  17  1   
 39  16  54  1   
 40  16  55  1   
 41  17  18  1   
 42  17  30  1   
 43  17  56  1   
 44  18  19  1   
 45  18  57  1   
 46  18  58  1   
 47  19  20  1   
 48  19  59  1   
 49  19  60  1   
 50  20  21  1   
 51  20  61  1   
 52  20  62  1   
 53  21  22  1   
 54  21  65  1   
 55  22  23  ar  
 56  22  29  ar  
 57  23  24  ar  
 58  23  31  1   
 59  24  25  ar  
 60  24  32  1   
 61  25  26  1   
 62  25  28  ar  
 63  26  27  3   
 64  28  29  ar  
 65  28  33  1   
 66  30  63  1   
 67  30  64  1   
@<TRIPOS>SUBSTRUCTURE
  1 LIG   4 GROUP 4 **** **** 0
@<TRIPOS>PROPERTY_DATA
index	|	ligand367
Name	|	MAK-UNK-af8-23
ChemPlp	|	-102.844
MM-GBSA Nwat=0	|	-11.0731
STDEV0	|	2.952
MM-GBSA Nwat=30	|	-50.7974
STDEV30	|	7.5359
MM-GBSA Nwat=60	|	-77.2865
STDEV60	|	7.0607
ST.DEV < 10%	|	N
RMSD LIG < 2	|	
DIST < 5	|	
DIST < 3.5	|	N

# MOE 2019.01 (io_trps.svl 2018.10)

@<TRIPOS>MOLECULE
ligand610
54 56 1 0 0 
SMALL
NO_CHARGES


@<TRIPOS>ATOM
  1 C1      12.2060     6.9820    26.5770 C.3   1 LIG   0.0000 
  2 H2      13.1780     6.9380    26.8070 H     1 LIG   0.0000 
  3 H3      11.8840     7.9240    26.6700 H     1 LIG   0.0000 
  4 H4      11.6890     6.3910    27.1970 H     1 LIG   0.0000 
  5 C5      12.0020     6.5170    25.1450 C.2   1 LIG   0.0000 
  6 O6      10.8990     6.4950    24.6720 O.2   1 LIG   0.0000 
  7 N7      13.0770     6.1230    24.3930 N.am  1 LIG   0.0000 
  8 H8      13.9960     6.1410    24.7870 H     1 LIG   0.0000 
  9 C9      12.8800     5.6720    23.0080 C.3   1 LIG   0.0000 
 10 H10     13.4580     6.2130    22.3960 H     1 LIG   0.0000 
 11 H11     11.9210     5.7910    22.7520 H     1 LIG   0.0000 
 12 C12     13.2570     4.2040    22.8940 C.3   1 LIG   0.0000 
 13 H13     13.4280     3.9780    21.9350 H     1 LIG   0.0000 
 14 H14     14.0820     4.0290    23.4300 H     1 LIG   0.0000 
 15 C15     12.1180     3.3470    23.4220 C.2   1 LIG   0.0000 
 16 C16     10.9860     3.8270    24.0110 C.2   1 LIG   0.0000 
 17 H17     10.7580     4.7870    24.1730 H     1 LIG   0.0000 
 18 N18     10.2260     2.7440    24.3360 N.pl3 1 LIG   0.0000 
 19 C19      8.9120     2.8090    24.9940 C.3   1 LIG   0.0000 
 20 H20      8.6720     3.7650    25.1650 H     1 LIG   0.0000 
 21 H21      8.2220     2.3920    24.4040 H     1 LIG   0.0000 
 22 H22      8.9500     2.3150    25.8630 H     1 LIG   0.0000 
 23 C23     10.8650     1.5980    23.9570 C.ar  1 LIG   0.0000 
 24 C24     10.4760     0.2680    24.0780 C.ar  1 LIG   0.0000 
 25 H25      9.6000     0.0410    24.5030 H     1 LIG   0.0000 
 26 C26     11.3040    -0.7440    23.6100 C.ar  1 LIG   0.0000 
 27 C27     10.8680    -2.1930    23.7510 C.3   1 LIG   0.0000 
 28 H28     11.4010    -2.7640    23.1270 H     1 LIG   0.0000 
 29 H29     11.0180    -2.4960    24.6920 H     1 LIG   0.0000 
 30 N30      9.4410    -2.3090    23.4220 N.3   1 LIG   0.0000 
 31 C31      9.3230    -2.1340    21.9660 C.3   1 LIG   0.0000 
 32 H32      9.8790    -2.8290    21.5100 H     1 LIG   0.0000 
 33 H33      9.6590    -1.2250    21.7200 H     1 LIG   0.0000 
 34 C34      7.8810    -2.2710    21.5000 C.3   1 LIG   0.0000 
 35 H35      7.3780    -1.4440    21.7530 H     1 LIG   0.0000 
 36 H36      7.8700    -2.3760    20.5060 H     1 LIG   0.0000 
 37 N37      7.2250    -3.4370    22.1120 N.am  1 LIG   0.0000 
 38 C38      6.2430    -4.1220    21.3900 C.2   1 LIG   0.0000 
 39 O39      5.9460    -3.7560    20.2860 O.2   1 LIG   0.0000 
 40 C40      5.5520    -5.3290    22.0020 C.3   1 LIG   0.0000 
 41 H41      5.1250    -5.0660    22.8670 H     1 LIG   0.0000 
 42 H42      4.8500    -5.6660    21.3730 H     1 LIG   0.0000 
 43 CL43     6.7500    -6.6120    22.2970 Cl    1 LIG   0.0000 
 44 C44      7.5650    -3.9230    23.4590 C.3   1 LIG   0.0000 
 45 H45      7.3810    -4.9040    23.5080 H     1 LIG   0.0000 
 46 H46      7.0000    -3.4440    24.1310 H     1 LIG   0.0000 
 47 C47      9.0320    -3.6760    23.7790 C.3   1 LIG   0.0000 
 48 H48      9.1780    -3.8140    24.7580 H     1 LIG   0.0000 
 49 H49      9.5900    -4.3270    23.2640 H     1 LIG   0.0000 
 50 C50     12.5210    -0.4240    23.0190 C.ar  1 LIG   0.0000 
 51 H51     13.1240    -1.1450    22.6780 H     1 LIG   0.0000 
 52 C52     12.8900     0.9140    22.9090 C.ar  1 LIG   0.0000 
 53 H53     13.7640     1.1470    22.4840 H     1 LIG   0.0000 
 54 C54     12.0660     1.9340    23.3760 C.ar  1 LIG   0.0000 
@<TRIPOS>BOND
  1   1   2  1   
  2   1   3  1   
  3   1   4  1   
  4   1   5  1   
  5   5   6  2   
  6   5   7  am  
  7   7   8  1   
  8   7   9  1   
  9   9  10  1   
 10   9  11  1   
 11   9  12  1   
 12  12  13  1   
 13  12  14  1   
 14  12  15  1   
 15  15  16  2   
 16  15  54  1   
 17  16  17  1   
 18  16  18  1   
 19  18  19  1   
 20  18  23  1   
 21  19  20  1   
 22  19  21  1   
 23  19  22  1   
 24  23  24  ar  
 25  23  54  ar  
 26  24  25  1   
 27  24  26  ar  
 28  26  27  1   
 29  26  50  ar  
 30  27  28  1   
 31  27  29  1   
 32  27  30  1   
 33  30  31  1   
 34  30  47  1   
 35  31  32  1   
 36  31  33  1   
 37  31  34  1   
 38  34  35  1   
 39  34  36  1   
 40  34  37  1   
 41  37  38  am  
 42  37  44  1   
 43  38  39  2   
 44  38  40  1   
 45  40  41  1   
 46  40  42  1   
 47  40  43  1   
 48  44  45  1   
 49  44  46  1   
 50  44  47  1   
 51  47  48  1   
 52  47  49  1   
 53  50  51  1   
 54  50  52  ar  
 55  52  53  1   
 56  52  54  ar  
@<TRIPOS>SUBSTRUCTURE
  1 LIG  24 GROUP 4 **** **** 0
@<TRIPOS>PROPERTY_DATA
index	|	ligand610
Name	|	TAM-UNI-d1c-19
ChemPlp	|	-96.605
MM-GBSA Nwat=0	|	-25.9644
STDEV0	|	2.4739
MM-GBSA Nwat=30	|	-50.604
STDEV30	|	5.1735
MM-GBSA Nwat=60	|	-61.8588
STDEV60	|	5.6692
ST.DEV < 10%	|	N
RMSD LIG < 2	|	
DIST < 5	|	
DIST < 3.5	|	N

# MOE 2019.01 (io_trps.svl 2018.10)

@<TRIPOS>MOLECULE
ligand023
52 54 1 0 0 
SMALL
NO_CHARGES


@<TRIPOS>ATOM
  1 C1       1.6140     2.7090    19.8900 C.2   1 LIG   0.0000 
  2 C4       2.7610     2.1700    19.6000 C.2   1 LIG   0.0000 
  3 C6       3.8900     2.1910    20.6180 C.2   1 LIG   0.0000 
  4 O7       3.7260     2.7160    21.6840 O.2   1 LIG   0.0000 
  5 N8       5.1210     1.5970    20.3110 N.am  1 LIG   0.0000 
  6 C9       5.3030     0.9640    18.9950 C.3   1 LIG   0.0000 
  7 C12      6.7420     1.0910    18.5200 C.3   1 LIG   0.0000 
  8 O15      7.6620     0.7750    19.5570 O.3   1 LIG   0.0000 
  9 C16      7.5640     1.7080    20.6240 C.3   1 LIG   0.0000 
 10 C17      8.6340     1.4470    21.6700 C.ar  1 LIG   0.0000 
 11 C18      9.3340     0.2450    21.6500 C.ar  1 LIG   0.0000 
 12 C20     10.3120     0.0190    22.6130 C.ar  1 LIG   0.0000 
 13 C21     11.0860    -1.2890    22.6050 C.3   1 LIG   0.0000 
 14 O24     10.2460    -2.3330    22.1360 O.3   1 LIG   0.0000 
 15 C25      9.2060    -2.5620    23.0740 C.3   1 LIG   0.0000 
 16 C26      9.8040    -3.0420    24.3870 C.3   1 LIG   0.0000 
 17 N30      8.2900    -3.5860    22.5510 N.pl3 1 LIG   0.0000 
 18 C32      7.3550    -3.2500    21.5660 C.ar  1 LIG   0.0000 
 19 C33      7.3190    -1.9520    21.0710 C.ar  1 LIG   0.0000 
 20 C35      6.3940    -1.6060    20.0920 C.ar  1 LIG   0.0000 
 21 C37      5.5200    -2.5840    19.6320 C.ar  1 LIG   0.0000 
 22 N39      5.5700    -3.8320    20.1230 N.ar  1 LIG   0.0000 
 23 C40      6.4560    -4.1860    21.0670 C.ar  1 LIG   0.0000 
 24 CL41     6.5170    -5.8430    21.7140 Cl    1 LIG   0.0000 
 25 C42     10.5870     0.9770    23.5820 C.ar  1 LIG   0.0000 
 26 F43     11.5230     0.7490    24.4960 F     1 LIG   0.0000 
 27 C44      9.8860     2.1790    23.6010 C.ar  1 LIG   0.0000 
 28 C46      8.9080     2.4060    22.6390 C.ar  1 LIG   0.0000 
 29 F47      8.2290     3.5490    22.6460 F     1 LIG   0.0000 
 30 C48      6.2060     1.6240    21.3040 C.3   1 LIG   0.0000 
 31 H18      9.1380    -0.4450    20.9540 H     1 LIG   0.0000 
 32 H44     10.0830     2.8690    24.2970 H     1 LIG   0.0000 
 33 H33      7.9590    -1.2660    21.4190 H     1 LIG   0.0000 
 34 H35      6.3590    -0.6760    19.7270 H     1 LIG   0.0000 
 35 H37      4.8460    -2.3550    18.9290 H     1 LIG   0.0000 
 36 H91      4.7000     1.4090    18.3330 H     1 LIG   0.0000 
 37 H92      5.0660    -0.0050    19.0640 H     1 LIG   0.0000 
 38 H121     6.8880     0.4650    17.7540 H     1 LIG   0.0000 
 39 H122     6.9030     2.0310    18.2180 H     1 LIG   0.0000 
 40 H16      7.6860     2.6310    20.2590 H     1 LIG   0.0000 
 41 H211    11.8800    -1.2020    22.0030 H     1 LIG   0.0000 
 42 H212    11.3930    -1.5000    23.5330 H     1 LIG   0.0000 
 43 H25      8.7030    -1.7120    23.2290 H     1 LIG   0.0000 
 44 H261     9.0720    -3.2030    25.0480 H     1 LIG   0.0000 
 45 H262    10.3080    -3.8920    24.2330 H     1 LIG   0.0000 
 46 H263    10.4280    -2.3460    24.7430 H     1 LIG   0.0000 
 47 H481     6.1670     0.7900    21.8540 H     1 LIG   0.0000 
 48 H482     6.0870     2.4200    21.8970 H     1 LIG   0.0000 
 49 H11      0.8720     2.6950    19.2200 H     1 LIG   0.0000 
 50 H12      1.4750     3.1380    20.7820 H     1 LIG   0.0000 
 51 H4       2.9010     1.7410    18.7070 H     1 LIG   0.0000 
 52 H30      8.3350    -4.5220    22.8980 H     1 LIG   0.0000 
@<TRIPOS>BOND
  1   1   2  2   
  2   1  49  1   
  3   1  50  1   
  4   2   3  1   
  5   2  51  1   
  6   3   4  2   
  7   3   5  am  
  8   5   6  1   
  9   5  30  1   
 10   6   7  1   
 11   6  36  1   
 12   6  37  1   
 13   7   8  1   
 14   7  38  1   
 15   7  39  1   
 16   8   9  1   
 17   9  10  1   
 18   9  30  1   
 19   9  40  1   
 20  10  11  ar  
 21  10  28  ar  
 22  11  12  ar  
 23  11  31  1   
 24  12  13  1   
 25  12  25  ar  
 26  13  14  1   
 27  13  41  1   
 28  13  42  1   
 29  14  15  1   
 30  15  16  1   
 31  15  17  1   
 32  15  43  1   
 33  16  44  1   
 34  16  45  1   
 35  16  46  1   
 36  17  18  1   
 37  17  52  1   
 38  18  19  ar  
 39  18  23  ar  
 40  19  20  ar  
 41  19  33  1   
 42  20  21  ar  
 43  20  34  1   
 44  21  22  ar  
 45  21  35  1   
 46  22  23  ar  
 47  23  24  1   
 48  25  26  1   
 49  25  27  ar  
 50  27  28  ar  
 51  27  32  1   
 52  28  29  1   
 53  30  47  1   
 54  30  48  1   
@<TRIPOS>SUBSTRUCTURE
  1 LIG  19 GROUP 4 **** **** 0
@<TRIPOS>PROPERTY_DATA
index	|	ligand023
Name	|	BEN-VAN-77c-6
ChemPlp	|	-98.1361
MM-GBSA Nwat=0	|	-28.7941
STDEV0	|	3.0848
MM-GBSA Nwat=30	|	-50.4289
STDEV30	|	5.4831
MM-GBSA Nwat=60	|	-56.4126
STDEV60	|	5.5138
ST.DEV < 10%	|	N
RMSD LIG < 2	|	
DIST < 5	|	
DIST < 3.5	|	N

# MOE 2019.01 (io_trps.svl 2018.10)

@<TRIPOS>MOLECULE
ligand047
55 59 1 0 0 
SMALL
USER_CHARGES


@<TRIPOS>ATOM
  1 O1       5.8000    -4.1890    19.6610 O.2   1 LIG   0.0000 
  2 C2       6.3080    -4.8030    20.5580 C.2   1 LIG   0.0000 
  3 C3       5.8870    -6.2370    20.8320 C.3   1 LIG   0.0000 
  4 H4       5.0530    -6.4430    20.3210 H     1 LIG   0.0000 
  5 H5       6.6160    -6.8590    20.5470 H     1 LIG   0.0000 
  6 CL6      5.5810    -6.4430    22.5740 Cl    1 LIG   0.0000 
  7 N7       7.2900    -4.1980    21.3520 N.am  1 LIG   0.0000 
  8 C8       7.9000    -4.9690    22.4470 C.3   1 LIG   0.0000 
  9 H9       8.7200    -5.4280    22.1040 H     1 LIG   0.0000 
 10 H10      7.2450    -5.6530    22.7670 H     1 LIG   0.0000 
 11 C11      8.2870    -4.0710    23.6130 C.3   1 LIG   0.0000 
 12 H12      7.4590    -3.8080    24.1080 H     1 LIG   0.0000 
 13 H13      8.8940    -4.5780    24.2250 H     1 LIG   0.0000 
 14 N14      8.9770    -2.8550    23.1550 N.3   1 LIG   0.0000 
 15 C15      9.2680    -2.0540    24.3510 C.3   1 LIG   0.0000 
 16 C16     10.1260    -0.8040    24.2130 C.2   1 LIG   0.0000 
 17 C17      9.8040     0.4200    24.7150 C.2   1 LIG   0.0000 
 18 H18      8.9820     0.6640    25.2300 H     1 LIG   0.0000 
 19 C19     10.8690     1.2730    24.3570 C.3   1 LIG   0.0000 
 20 C20     10.9720     2.7510    24.6950 C.1   1 LIG   0.0000 
 21 C21     11.0520     3.9080    24.9600 C.1   1 LIG   0.0000 
 22 C22     11.1540     5.3870    25.2990 C.ar  1 LIG   0.0000 
 23 C23     10.0920     6.0330    25.9220 C.ar  1 LIG   0.0000 
 24 H24      9.2610     5.5230    26.1470 H     1 LIG   0.0000 
 25 C25     10.1800     7.3860    26.2340 C.ar  1 LIG   0.0000 
 26 H26      9.4180     7.8520    26.6820 H     1 LIG   0.0000 
 27 C27     11.3410     8.0810    25.9150 C.ar  1 LIG   0.0000 
 28 F28     11.4300     9.3750    26.2100 F     1 LIG   0.0000 
 29 C29     12.4120     7.4470    25.2920 C.ar  1 LIG   0.0000 
 30 H30     13.2420     7.9570    25.0680 H     1 LIG   0.0000 
 31 C31     12.3110     6.0930    24.9860 C.ar  1 LIG   0.0000 
 32 O32     13.3420     5.4660    24.3810 O.3   1 LIG   0.0000 
 33 H33     14.2570     5.8700    24.4050 H     1 LIG   0.0000 
 34 C34     11.7850     0.5460    23.6570 C.ar  1 LIG   0.0000 
 35 C35     13.0240     0.9200    23.0780 C.ar  1 LIG   0.0000 
 36 H36     13.3620     1.8600    23.1400 H     1 LIG   0.0000 
 37 C37     13.7410    -0.0500    22.4300 C.ar  1 LIG   0.0000 
 38 H38     14.6190     0.1850    22.0120 H     1 LIG   0.0000 
 39 C39     13.2610    -1.3840    22.3400 C.ar  1 LIG   0.0000 
 40 H40     13.7910    -2.0860    21.8630 H     1 LIG   0.0000 
 41 C41     12.0580    -1.6880    22.9190 C.ar  1 LIG   0.0000 
 42 H42     11.7070    -2.6220    22.8640 H     1 LIG   0.0000 
 43 N43     11.3270    -0.7290    23.5730 N.ar  1 LIG   1.0000 
 44 C44      9.4040    -2.8050    25.6450 C.3   1 LIG   0.0000 
 45 H45     10.0550    -2.4940    26.3380 H     1 LIG   0.0000 
 46 H46      9.3640    -3.8040    25.6500 H     1 LIG   0.0000 
 47 C47      8.1640    -2.0050    25.3680 C.3   1 LIG   0.0000 
 48 H48      7.2980    -2.4710    25.1880 H     1 LIG   0.0000 
 49 H49      7.9890    -1.1610    25.8750 H     1 LIG   0.0000 
 50 C50      8.0560    -2.0610    22.3260 C.3   1 LIG   0.0000 
 51 H51      8.5040    -1.2040    22.0730 H     1 LIG   0.0000 
 52 H52      7.2310    -1.8630    22.8550 H     1 LIG   0.0000 
 53 C53      7.6630    -2.8050    21.0580 C.3   1 LIG   0.0000 
 54 H54      6.8850    -2.3410    20.6350 H     1 LIG   0.0000 
 55 H55      8.4370    -2.8020    20.4240 H     1 LIG   0.0000 
@<TRIPOS>BOND
  1   1   2  2   
  2   2   3  1   
  3   2   7  am  
  4   3   4  1   
  5   3   5  1   
  6   3   6  1   
  7   7   8  1   
  8   7  53  1   
  9   8   9  1   
 10   8  10  1   
 11   8  11  1   
 12  11  12  1   
 13  11  13  1   
 14  11  14  1   
 15  14  15  1   
 16  14  50  1   
 17  15  16  1   
 18  15  44  1   
 19  15  47  1   
 20  16  17  2   
 21  16  43  1   
 22  17  18  1   
 23  17  19  1   
 24  19  20  1   
 25  19  34  1   
 26  20  21  3   
 27  21  22  1   
 28  22  23  ar  
 29  22  31  ar  
 30  23  24  1   
 31  23  25  ar  
 32  25  26  1   
 33  25  27  ar  
 34  27  28  1   
 35  27  29  ar  
 36  29  30  1   
 37  29  31  ar  
 38  31  32  1   
 39  32  33  1   
 40  34  35  ar  
 41  34  43  ar  
 42  35  36  1   
 43  35  37  ar  
 44  37  38  1   
 45  37  39  ar  
 46  39  40  1   
 47  39  41  ar  
 48  41  42  1   
 49  41  43  ar  
 50  44  45  1   
 51  44  46  1   
 52  44  47  1   
 53  47  48  1   
 54  47  49  1   
 55  50  51  1   
 56  50  52  1   
 57  50  53  1   
 58  53  54  1   
 59  53  55  1   
@<TRIPOS>SUBSTRUCTURE
  1 LIG  17 GROUP 4 **** **** 0
@<TRIPOS>PROPERTY_DATA
index	|	ligand047
Name	|	BOG-INS-699-1
ChemPlp	|	-94.7362
MM-GBSA Nwat=0	|	-38.7066
STDEV0	|	2.9044
MM-GBSA Nwat=30	|	-50.2324
STDEV30	|	5.0575
MM-GBSA Nwat=60	|	-54.7551
STDEV60	|	4.6748
ST.DEV < 10%	|	N
RMSD LIG < 2	|	
DIST < 5	|	
DIST < 3.5	|	N

# MOE 2019.01 (io_trps.svl 2018.10)

@<TRIPOS>MOLECULE
ligand211
70 75 1 0 0 
SMALL
NO_CHARGES


@<TRIPOS>ATOM
  1 C1       6.7510    -5.6150    28.5950 C.3   1 LIG   0.0000 
  2 C5       7.7540    -5.2320    27.5190 C.2   1 LIG   0.0000 
  3 C6       7.7100    -4.0710    26.8120 C.2   1 LIG   0.0000 
  4 C8       8.8240    -4.1460    25.9500 C.2   1 LIG   0.0000 
  5 C9       9.2290    -3.1450    24.9820 C.ar  1 LIG   0.0000 
  6 C10     10.4870    -3.2320    24.3960 C.ar  1 LIG   0.0000 
  7 C12     10.8650    -2.2670    23.4690 C.ar  1 LIG   0.0000 
  8 C14     10.0080    -1.2270    23.1260 C.ar  1 LIG   0.0000 
  9 C16      8.7540    -1.1610    23.7260 C.ar  1 LIG   0.0000 
 10 C17      7.8040    -0.0310    23.3630 C.3   1 LIG   0.0000 
 11 C18      8.4260     1.3550    23.4430 C.ar  1 LIG   0.0000 
 12 C19      9.6020     1.5600    24.1580 C.ar  1 LIG   0.0000 
 13 C21     10.1890     2.8160    24.2300 C.ar  1 LIG   0.0000 
 14 C23      9.5720     3.8690    23.5650 C.ar  1 LIG   0.0000 
 15 C25      8.3940     3.6790    22.8510 C.ar  1 LIG   0.0000 
 16 C26      7.7860     4.8870    22.1560 C.3   1 LIG   0.0000 
 17 C28      6.6170     5.4250    22.9400 C.3   1 LIG   0.0000 
 18 C31      7.0950     6.8130    22.5570 C.3   1 LIG   0.0000 
 19 F32      6.9680     7.6930    23.5430 F     1 LIG   0.0000 
 20 F33      6.6560     7.2610    21.3820 F     1 LIG   0.0000 
 21 C34      8.4680     6.1890    22.5160 C.3   1 LIG   0.0000 
 22 C37      7.8080     2.4160    22.7920 C.ar  1 LIG   0.0000 
 23 C38      6.5180     2.1520    22.0330 C.3   1 LIG   0.0000 
 24 N41      6.5680     0.8370    21.3780 N.am  1 LIG   0.0000 
 25 C42      5.7640     0.6340    20.2480 C.2   1 LIG   0.0000 
 26 O43      5.7770    -0.4250    19.6850 O.2   1 LIG   0.0000 
 27 C44      4.8760     1.7570    19.7360 C.3   1 LIG   0.0000 
 28 CL47     3.9500     2.4450    21.0920 Cl    1 LIG   0.0000 
 29 C48      7.4410    -0.2270    21.9020 C.3   1 LIG   0.0000 
 30 C49      6.7610    -1.5700    21.6860 C.ar  1 LIG   0.0000 
 31 C50      5.8050    -2.0000    22.6000 C.ar  1 LIG   0.0000 
 32 C52      5.1900    -3.2300    22.3920 C.ar  1 LIG   0.0000 
 33 N53      4.2260    -3.6740    23.3060 N.am  1 LIG   0.0000 
 34 C55      3.8920    -5.0020    23.3580 C.2   1 LIG   0.0000 
 35 N56      2.9490    -5.4360    24.2520 N.am  1 LIG   0.0000 
 36 O59      4.4250    -5.7840    22.6210 O.2   1 LIG   0.0000 
 37 N60      5.5340    -3.9620    21.3220 N.ar  1 LIG   0.0000 
 38 C61      6.4580    -3.5340    20.4480 C.ar  1 LIG   0.0000 
 39 N63      7.0600    -2.3500    20.6360 N.ar  1 LIG   0.0000 
 40 C64      8.3540    -2.1150    24.6560 C.ar  1 LIG   0.0000 
 41 C66      9.4500    -5.3330    26.1960 C.2   1 LIG   0.0000 
 42 O68      8.7820    -5.9560    27.1400 O.3   1 LIG   0.0000 
 43 H6       7.0400    -3.3320    26.8850 H     1 LIG   0.0000 
 44 H66     10.2730    -5.6690    25.7380 H     1 LIG   0.0000 
 45 H10     11.1090    -3.9770    24.6360 H     1 LIG   0.0000 
 46 H12     11.7680    -2.3210    23.0420 H     1 LIG   0.0000 
 47 H14     10.2880    -0.5370    22.4590 H     1 LIG   0.0000 
 48 H64      7.4520    -2.0600    25.0840 H     1 LIG   0.0000 
 49 H19     10.0320     0.7900    24.6280 H     1 LIG   0.0000 
 50 H21     11.0330     2.9590    24.7460 H     1 LIG   0.0000 
 51 H23      9.9840     4.7800    23.6000 H     1 LIG   0.0000 
 52 H50      5.5650    -1.4370    23.3900 H     1 LIG   0.0000 
 53 H61      6.6980    -4.0970    19.6580 H     1 LIG   0.0000 
 54 H11      6.0680    -4.8900    28.6880 H     1 LIG   0.0000 
 55 H12      6.2970    -6.4690    28.3390 H     1 LIG   0.0000 
 56 H13      7.2270    -5.7390    29.4660 H     1 LIG   0.0000 
 57 H17      6.9830    -0.0740    23.9320 H     1 LIG   0.0000 
 58 H26      7.6120     4.7630    21.1790 H     1 LIG   0.0000 
 59 H281     5.7200     5.1760    22.5760 H     1 LIG   0.0000 
 60 H282     6.6450     5.2290    23.9200 H     1 LIG   0.0000 
 61 H341     8.9500     6.1800    23.3930 H     1 LIG   0.0000 
 62 H342     9.0730     6.5540    21.8080 H     1 LIG   0.0000 
 63 H381     5.7490     2.1720    22.6720 H     1 LIG   0.0000 
 64 H382     6.3930     2.8610    21.3390 H     1 LIG   0.0000 
 65 H441     5.4440     2.4690    19.3240 H     1 LIG   0.0000 
 66 H442     4.2450     1.3950    19.0510 H     1 LIG   0.0000 
 67 H48      8.2880    -0.2210    21.3700 H     1 LIG   0.0000 
 68 H53      3.7820    -3.0220    23.9200 H     1 LIG   0.0000 
 69 H561     2.5050    -4.7840    24.8670 H     1 LIG   0.0000 
 70 H562     2.7050    -6.4050    24.2900 H     1 LIG   0.0000 
@<TRIPOS>BOND
  1   1   2  1   
  2   1  54  1   
  3   1  55  1   
  4   1  56  1   
  5   2   3  2   
  6   2  42  1   
  7   3   4  1   
  8   3  43  1   
  9   4   5  1   
 10   4  41  2   
 11   5   6  ar  
 12   5  40  ar  
 13   6   7  ar  
 14   6  45  1   
 15   7   8  ar  
 16   7  46  1   
 17   8   9  ar  
 18   8  47  1   
 19   9  10  1   
 20   9  40  ar  
 21  10  11  1   
 22  10  29  1   
 23  10  57  1   
 24  11  12  ar  
 25  11  22  ar  
 26  12  13  ar  
 27  12  49  1   
 28  13  14  ar  
 29  13  50  1   
 30  14  15  ar  
 31  14  51  1   
 32  15  16  1   
 33  15  22  ar  
 34  16  17  1   
 35  16  21  1   
 36  16  58  1   
 37  17  18  1   
 38  17  59  1   
 39  17  60  1   
 40  18  19  1   
 41  18  20  1   
 42  18  21  1   
 43  21  61  1   
 44  21  62  1   
 45  22  23  1   
 46  23  24  1   
 47  23  63  1   
 48  23  64  1   
 49  24  25  am  
 50  24  29  1   
 51  25  26  2   
 52  25  27  1   
 53  27  28  1   
 54  27  65  1   
 55  27  66  1   
 56  29  30  1   
 57  29  67  1   
 58  30  31  ar  
 59  30  39  ar  
 60  31  32  ar  
 61  31  52  1   
 62  32  33  1   
 63  32  37  ar  
 64  33  34  am  
 65  33  68  1   
 66  34  35  am  
 67  34  36  2   
 68  35  69  1   
 69  35  70  1   
 70  37  38  ar  
 71  38  39  ar  
 72  38  53  1   
 73  40  48  1   
 74  41  42  1   
 75  41  44  1   
@<TRIPOS>SUBSTRUCTURE
  1 LIG  10 GROUP 4 **** **** 0
@<TRIPOS>PROPERTY_DATA
index	|	ligand211
Name	|	INS-INS-68e-1
ChemPlp	|	-99.5062
MM-GBSA Nwat=0	|	-33.3367
STDEV0	|	3.447
MM-GBSA Nwat=30	|	-49.7823
STDEV30	|	6.9874
MM-GBSA Nwat=60	|	-62.2803
STDEV60	|	6.6239
ST.DEV < 10%	|	N
RMSD LIG < 2	|	
DIST < 5	|	
DIST < 3.5	|	N

# MOE 2019.01 (io_trps.svl 2018.10)

@<TRIPOS>MOLECULE
ligand302
66 69 1 0 0 
SMALL
USER_CHARGES


@<TRIPOS>ATOM
  1 C1      10.0930     2.6250    22.9810 C.3   1 LIG   0.0000 
  2 C5      11.3280     3.2130    23.6440 C.3   1 LIG   0.0000 
  3 C6      12.3840     3.4960    22.5870 C.3   1 LIG   0.0000 
  4 O9      13.5170     4.0950    23.1990 O.3   1 LIG   0.0000 
  5 C11     10.9570     4.5070    24.3490 C.3   1 LIG   0.0000 
  6 O14     10.0000     5.2120    23.5720 O.3   1 LIG   0.0000 
  7 C15      9.3680     6.2870    24.0910 C.2   1 LIG   0.0000 
  8 C16      9.6230     6.8380    25.3110 C.2   1 LIG   0.0000 
  9 N18      8.7740     7.8950    25.4540 N.pl3 1 LIG   0.0000 
 10 C20      7.9890     8.0180    24.3430 C.ar  1 LIG   0.0000 
 11 C21      6.9900     8.9450    24.0610 C.ar  1 LIG   0.0000 
 12 C23      6.2990     8.8780    22.8550 C.ar  1 LIG   0.0000 
 13 C25      6.6210     7.8760    21.9450 C.ar  1 LIG   0.0000 
 14 F26      5.9560     7.8120    20.7950 F     1 LIG   0.0000 
 15 C27      7.6280     6.9670    22.2610 C.ar  1 LIG   0.0000 
 16 C29      8.3340     7.0170    23.4610 C.ar  1 LIG   0.0000 
 17 C30     11.8790     2.2240    24.6580 C.3   1 LIG   0.0000 
 18 C33     11.8740     0.8270    24.0570 C.ar  1 LIG   0.0000 
 19 C34     12.7450     0.5180    23.0180 C.ar  1 LIG   0.0000 
 20 C36     12.7270    -0.7650    22.4800 C.ar  1 LIG   0.0000 
 21 C38     11.8530    -1.7310    22.9680 C.ar  1 LIG   0.0000 
 22 C40     10.9900    -1.4010    24.0070 C.ar  1 LIG   0.0000 
 23 C41     10.0320    -2.4500    24.5470 C.3   1 LIG   0.0000 
 24 N44      9.4880    -3.2380    23.4320 N.4   1 LIG   1.0000 
 25 C46      8.5660    -4.2270    24.0130 C.3   1 LIG   0.0000 
 26 C49      7.8990    -5.0790    22.9430 C.3   1 LIG   0.0000 
 27 N52      7.4110    -4.2560    21.8250 N.am  1 LIG   0.0000 
 28 C53      6.2540    -4.6660    21.1500 C.2   1 LIG   0.0000 
 29 O54      5.8320    -4.0160    20.2340 O.2   1 LIG   0.0000 
 30 C55      5.5340    -5.9350    21.5780 C.3   1 LIG   0.0000 
 31 CL58     4.4290    -5.5650    22.9230 Cl    1 LIG   0.0000 
 32 C59      8.0820    -3.0180    21.4000 C.3   1 LIG   0.0000 
 33 C62      8.7430    -2.3050    22.5700 C.3   1 LIG   0.0000 
 34 C65     10.9920    -0.1240    24.5600 C.ar  1 LIG   0.0000 
 35 H16     10.3040     6.5270    25.9740 H     1 LIG   0.0000 
 36 H18      8.7320     8.4920    26.2550 H     1 LIG   0.0000 
 37 H21      6.7690     9.6590    24.7250 H     1 LIG   0.0000 
 38 H23      5.5810     9.5410    22.6450 H     1 LIG   0.0000 
 39 H27      7.8530     6.2510    21.6010 H     1 LIG   0.0000 
 40 H34     13.3760     1.2080    22.6630 H     1 LIG   0.0000 
 41 H36     13.3500    -0.9950    21.7320 H     1 LIG   0.0000 
 42 H38     11.8460    -2.6510    22.5760 H     1 LIG   0.0000 
 43 H65     10.3690     0.1060    25.3070 H     1 LIG   0.0000 
 44 H11     10.3380     1.7730    22.5170 H     1 LIG   0.0000 
 45 H12      9.3990     2.4380    23.6760 H     1 LIG   0.0000 
 46 H13      9.7310     3.2760    22.3140 H     1 LIG   0.0000 
 47 H61     12.6550     2.6390    22.1490 H     1 LIG   0.0000 
 48 H62     12.0080     4.1180    21.9000 H     1 LIG   0.0000 
 49 H111    10.5690     4.2980    25.2470 H     1 LIG   0.0000 
 50 H112    11.7750     5.0720    24.4620 H     1 LIG   0.0000 
 51 H301    12.8150     2.4800    24.8980 H     1 LIG   0.0000 
 52 H302    11.3090     2.2350    25.4790 H     1 LIG   0.0000 
 53 H411    10.5200    -3.0560    25.1760 H     1 LIG   0.0000 
 54 H412     9.2830    -1.9990    25.0330 H     1 LIG   0.0000 
 55 H44     10.2210    -3.6890    22.9220 H     1 LIG   0.0000 
 56 H461     7.8580    -3.7450    24.5300 H     1 LIG   0.0000 
 57 H462     9.0790    -4.8250    24.6290 H     1 LIG   0.0000 
 58 H491     8.5620    -5.7400    22.5940 H     1 LIG   0.0000 
 59 H492     7.1260    -5.5660    23.3510 H     1 LIG   0.0000 
 60 H551     5.0110    -6.2970    20.8060 H     1 LIG   0.0000 
 61 H552     6.2040    -6.6150    21.8740 H     1 LIG   0.0000 
 62 H591     7.4050    -2.4070    20.9890 H     1 LIG   0.0000 
 63 H592     8.7810    -3.2440    20.7210 H     1 LIG   0.0000 
 64 H621     9.3760    -1.6180    22.2150 H     1 LIG   0.0000 
 65 H622     8.0360    -1.8560    23.1160 H     1 LIG   0.0000 
 66 H9      14.1510     3.3820    23.4970 H     1 LIG   0.0000 
@<TRIPOS>BOND
  1   1   2  1   
  2   1  44  1   
  3   1  45  1   
  4   1  46  1   
  5   2   3  1   
  6   2   5  1   
  7   2  17  1   
  8   3   4  1   
  9   3  47  1   
 10   3  48  1   
 11   4  66  1   
 12   5   6  1   
 13   5  49  1   
 14   5  50  1   
 15   6   7  1   
 16   7   8  2   
 17   7  16  1   
 18   8   9  1   
 19   8  35  1   
 20   9  10  1   
 21   9  36  1   
 22  10  11  ar  
 23  10  16  ar  
 24  11  12  ar  
 25  11  37  1   
 26  12  13  ar  
 27  12  38  1   
 28  13  14  1   
 29  13  15  ar  
 30  15  16  ar  
 31  15  39  1   
 32  17  18  1   
 33  17  51  1   
 34  17  52  1   
 35  18  19  ar  
 36  18  34  ar  
 37  19  20  ar  
 38  19  40  1   
 39  20  21  ar  
 40  20  41  1   
 41  21  22  ar  
 42  21  42  1   
 43  22  23  1   
 44  22  34  ar  
 45  23  24  1   
 46  23  53  1   
 47  23  54  1   
 48  24  25  1   
 49  24  33  1   
 50  24  55  1   
 51  25  26  1   
 52  25  56  1   
 53  25  57  1   
 54  26  27  1   
 55  26  58  1   
 56  26  59  1   
 57  27  28  am  
 58  27  32  1   
 59  28  29  2   
 60  28  30  1   
 61  30  31  1   
 62  30  60  1   
 63  30  61  1   
 64  32  33  1   
 65  32  62  1   
 66  32  63  1   
 67  33  64  1   
 68  33  65  1   
 69  34  43  1   
@<TRIPOS>SUBSTRUCTURE
  1 LIG   1 GROUP 4 **** **** 0
@<TRIPOS>PROPERTY_DATA
index	|	ligand302
Name	|	MAK-UNK-69e-1
ChemPlp	|	-114.323
MM-GBSA Nwat=0	|	-21.8359
STDEV0	|	3.4629
MM-GBSA Nwat=30	|	-49.4051
STDEV30	|	6.999
MM-GBSA Nwat=60	|	-63.5949
STDEV60	|	7.3317
ST.DEV < 10%	|	N
RMSD LIG < 2	|	
DIST < 5	|	
DIST < 3.5	|	N

# MOE 2019.01 (io_trps.svl 2018.10)

@<TRIPOS>MOLECULE
ligand516
63 66 1 0 0 
SMALL
USER_CHARGES


@<TRIPOS>ATOM
  1 N1      14.4060     3.7450    22.3650 N.1   1 LIG   0.0000 
  2 C2      13.5060     3.1900    22.7900 C.1   1 LIG   0.0000 
  3 C3      12.3040     2.4510    23.3570 C.ar  1 LIG   0.0000 
  4 C4      12.4970     1.4720    24.3260 C.ar  1 LIG   0.0000 
  5 C6      11.3990     0.7950    24.8470 C.ar  1 LIG   0.0000 
  6 C8      10.1180     1.0970    24.3980 C.ar  1 LIG   0.0000 
  7 C9       8.9420     0.3370    24.9880 C.3   1 LIG   0.0000 
  8 N12      8.3480    -0.5250    23.9560 N.am  1 LIG   0.0000 
  9 C14      7.4690    -1.5140    24.3120 C.2   1 LIG   0.0000 
 10 O15      7.1840    -1.6760    25.4670 O.2   1 LIG   0.0000 
 11 N16      6.9040    -2.3350    23.3300 N.am  1 LIG   0.0000 
 12 C17      5.9620    -3.3920    23.7310 C.3   1 LIG   0.0000 
 13 C20      4.9030    -3.6140    22.6620 C.3   1 LIG   0.0000 
 14 O23      5.4820    -3.6870    21.3650 O.3   1 LIG   0.0000 
 15 C24      6.0760    -2.4460    21.0080 C.3   1 LIG   0.0000 
 16 C27      7.2470    -2.1060    21.9180 C.3   1 LIG   0.0000 
 17 C30      9.9350     2.0780    23.4280 C.ar  1 LIG   0.0000 
 18 C31      8.5480     2.4320    22.9160 C.3   1 LIG   0.0000 
 19 C32      8.2150     1.5660    21.7120 C.2   1 LIG   0.0000 
 20 C33      9.0750     0.7730    21.0180 C.2   1 LIG   0.0000 
 21 C35      8.5000     0.0670    19.9280 C.2   1 LIG   0.0000 
 22 C37      7.1710     0.3010    19.7600 C.2   1 LIG   0.0000 
 23 BR38     5.9970    -0.4670    18.3930 Br    1 LIG   0.0000 
 24 S39      6.6930     1.3950    20.9690 S.3   1 LIG   0.0000 
 25 N40      8.5160     3.8480    22.5250 N.4   1 LIG   1.0000 
 26 C41      7.1420     4.1430    22.0850 C.3   1 LIG   0.0000 
 27 C44      6.9710     5.6040    21.6960 C.3   1 LIG   0.0000 
 28 N47      7.5840     6.5020    22.6880 N.am  1 LIG   0.0000 
 29 C48      6.9950     7.7520    22.9080 C.2   1 LIG   0.0000 
 30 O49      6.0140     8.0700    22.2950 O.2   1 LIG   0.0000 
 31 C50      7.5990     8.7070    23.9250 C.3   1 LIG   0.0000 
 32 CL53     6.7010    10.2440    23.9020 Cl    1 LIG   0.0000 
 33 C54      8.7790     6.1310    23.4620 C.3   1 LIG   0.0000 
 34 C57      8.8340     4.6340    23.7290 C.3   1 LIG   0.0000 
 35 C60     11.0270     2.7610    22.9020 C.ar  1 LIG   0.0000 
 36 H4      13.4200     1.2560    24.6470 H     1 LIG   0.0000 
 37 H6      11.5310     0.0900    25.5440 H     1 LIG   0.0000 
 38 H60     10.8950     3.4660    22.2040 H     1 LIG   0.0000 
 39 H33     10.0420     0.6920    21.2580 H     1 LIG   0.0000 
 40 H35      9.0250    -0.5450    19.3370 H     1 LIG   0.0000 
 41 H91      9.2580    -0.2260    25.7520 H     1 LIG   0.0000 
 42 H92      8.2550     0.9870    25.3150 H     1 LIG   0.0000 
 43 H171     5.5140    -3.1240    24.5840 H     1 LIG   0.0000 
 44 H172     6.4670    -4.2430    23.8730 H     1 LIG   0.0000 
 45 H201     4.4230    -4.4700    22.8520 H     1 LIG   0.0000 
 46 H202     4.2530    -2.8540    22.6850 H     1 LIG   0.0000 
 47 H241     5.3890    -1.7240    21.0800 H     1 LIG   0.0000 
 48 H242     6.4040    -2.5020    20.0650 H     1 LIG   0.0000 
 49 H271     8.0280    -2.6800    21.6740 H     1 LIG   0.0000 
 50 H272     7.4890    -1.1430    21.7930 H     1 LIG   0.0000 
 51 H31      7.8750     2.2710    23.6390 H     1 LIG   0.0000 
 52 H40      9.1730     4.0320    21.7940 H     1 LIG   0.0000 
 53 H411     6.5110     3.9320    22.8320 H     1 LIG   0.0000 
 54 H412     6.9260     3.5700    21.2940 H     1 LIG   0.0000 
 55 H441     7.4050     5.7560    20.8080 H     1 LIG   0.0000 
 56 H442     5.9950     5.8100    21.6300 H     1 LIG   0.0000 
 57 H501     7.5430     8.3020    24.8370 H     1 LIG   0.0000 
 58 H502     8.5570     8.8780    23.6940 H     1 LIG   0.0000 
 59 H541     8.7620     6.6160    24.3370 H     1 LIG   0.0000 
 60 H542     9.5940     6.3990    22.9490 H     1 LIG   0.0000 
 61 H571     9.7550     4.3940    24.0370 H     1 LIG   0.0000 
 62 H572     8.1740     4.4090    24.4460 H     1 LIG   0.0000 
 63 H12      8.5860    -0.3900    22.9940 H     1 LIG   0.0000 
@<TRIPOS>BOND
  1   1   2  3   
  2   2   3  1   
  3   3   4  ar  
  4   3  35  ar  
  5   4   5  ar  
  6   4  36  1   
  7   5   6  ar  
  8   5  37  1   
  9   6   7  1   
 10   6  17  ar  
 11   7   8  1   
 12   7  41  1   
 13   7  42  1   
 14   8   9  am  
 15   8  63  1   
 16   9  10  2   
 17   9  11  am  
 18  11  12  1   
 19  11  16  1   
 20  12  13  1   
 21  12  43  1   
 22  12  44  1   
 23  13  14  1   
 24  13  45  1   
 25  13  46  1   
 26  14  15  1   
 27  15  16  1   
 28  15  47  1   
 29  15  48  1   
 30  16  49  1   
 31  16  50  1   
 32  17  18  1   
 33  17  35  ar  
 34  18  19  1   
 35  18  25  1   
 36  18  51  1   
 37  19  20  2   
 38  19  24  1   
 39  20  21  1   
 40  20  39  1   
 41  21  22  2   
 42  21  40  1   
 43  22  23  1   
 44  22  24  1   
 45  25  26  1   
 46  25  34  1   
 47  25  52  1   
 48  26  27  1   
 49  26  53  1   
 50  26  54  1   
 51  27  28  1   
 52  27  55  1   
 53  27  56  1   
 54  28  29  am  
 55  28  33  1   
 56  29  30  2   
 57  29  31  1   
 58  31  32  1   
 59  31  57  1   
 60  31  58  1   
 61  33  34  1   
 62  33  59  1   
 63  33  60  1   
 64  34  61  1   
 65  34  62  1   
 66  35  38  1   
@<TRIPOS>SUBSTRUCTURE
  1 LIG  18 GROUP 4 **** **** 0
@<TRIPOS>PROPERTY_DATA
index	|	ligand516
Name	|	PAU-WEI-f73-2
ChemPlp	|	-93.6384
MM-GBSA Nwat=0	|	-7.1553
STDEV0	|	3.6569
MM-GBSA Nwat=30	|	-48.7544
STDEV30	|	8.1718
MM-GBSA Nwat=60	|	-78.0931
STDEV60	|	7.5753
ST.DEV < 10%	|	N
RMSD LIG < 2	|	
DIST < 5	|	
DIST < 3.5	|	N

# MOE 2019.01 (io_trps.svl 2018.10)

@<TRIPOS>MOLECULE
ligand549
56 59 1 0 0 
SMALL
NO_CHARGES


@<TRIPOS>ATOM
  1 O1       6.6630     2.5380    21.3840 O.2   1 LIG   0.0000 
  2 C2       7.1750     1.4640    21.2280 C.2   1 LIG   0.0000 
  3 C3       6.3700     0.3160    20.6400 C.3   1 LIG   0.0000 
  4 H4       6.8790    -0.5370    20.7480 H     1 LIG   0.0000 
  5 H5       5.4940     0.2450    21.1190 H     1 LIG   0.0000 
  6 CL6      6.0780     0.6200    18.9110 Cl    1 LIG   0.0000 
  7 N7       8.5140     1.2680    21.5870 N.am  1 LIG   0.0000 
  8 C8       9.0920    -0.0670    21.3750 C.3   1 LIG   0.0000 
  9 H9       9.4280    -0.1440    20.4360 H     1 LIG   0.0000 
 10 H10      8.3970    -0.7660    21.5390 H     1 LIG   0.0000 
 11 C11     10.2460    -0.2510    22.3490 C.ar  1 LIG   0.0000 
 12 C12     10.4850    -1.4880    22.9420 C.ar  1 LIG   0.0000 
 13 O13      9.7180    -2.5690    22.6840 O.3   1 LIG   0.0000 
 14 C14      8.9520    -3.1610    23.7230 C.3   1 LIG   0.0000 
 15 H15      8.2510    -2.5160    24.0280 H     1 LIG   0.0000 
 16 H16      9.5510    -3.3890    24.4900 H     1 LIG   0.0000 
 17 C17      8.2870    -4.4260    23.2060 C.3   1 LIG   0.0000 
 18 H18      8.9710    -5.1500    23.1190 H     1 LIG   0.0000 
 19 H19      7.5760    -4.7140    23.8470 H     1 LIG   0.0000 
 20 N20      7.6840    -4.1600    21.8900 N.3   1 LIG   0.0000 
 21 C21      6.9320    -5.3190    21.3850 C.3   1 LIG   0.0000 
 22 H22      6.1960    -5.5380    22.0260 H     1 LIG   0.0000 
 23 H23      7.5480    -6.1020    21.3060 H     1 LIG   0.0000 
 24 C24      6.3340    -5.0110    20.0220 C.3   1 LIG   0.0000 
 25 H25      7.0720    -4.8410    19.3690 H     1 LIG   0.0000 
 26 H26      5.7920    -5.7930    19.7160 H     1 LIG   0.0000 
 27 O27      5.5000    -3.8630    20.0950 O.3   1 LIG   0.0000 
 28 C28      6.2030    -2.7200    20.5600 C.3   1 LIG   0.0000 
 29 H29      5.5720    -1.9460    20.6190 H     1 LIG   0.0000 
 30 H30      6.9390    -2.5010    19.9190 H     1 LIG   0.0000 
 31 C31      6.7970    -2.9880    21.9340 C.3   1 LIG   0.0000 
 32 H32      7.3220    -2.1890    22.2280 H     1 LIG   0.0000 
 33 H33      6.0580    -3.1580    22.5850 H     1 LIG   0.0000 
 34 C34     11.5440    -1.6320    23.8300 C.ar  1 LIG   0.0000 
 35 H35     11.7110    -2.5230    24.2520 H     1 LIG   0.0000 
 36 C36     12.3760    -0.5640    24.1440 C.ar  1 LIG   0.0000 
 37 H37     13.1370    -0.6760    24.7840 H     1 LIG   0.0000 
 38 C38     12.1220     0.6630    23.5450 C.ar  1 LIG   0.0000 
 39 H39     12.7090     1.4440    23.7590 H     1 LIG   0.0000 
 40 C40     11.0670     0.8260    22.6550 C.ar  1 LIG   0.0000 
 41 C41     10.7910     2.1720    22.0050 C.3   1 LIG   0.0000 
 42 C42     11.4560     3.3450    22.7080 C.ar  1 LIG   0.0000 
 43 C43     11.2510     3.5440    24.0700 C.ar  1 LIG   0.0000 
 44 H44     10.6690     2.9200    24.5910 H     1 LIG   0.0000 
 45 C45     11.8670     4.6220    24.6970 C.ar  1 LIG   0.0000 
 46 H46     11.7250     4.7700    25.6760 H     1 LIG   0.0000 
 47 C47     12.6780     5.4950    23.9810 C.ar  1 LIG   0.0000 
 48 H48     13.1180     6.2680    24.4380 H     1 LIG   0.0000 
 49 C49     12.8690     5.2790    22.6200 C.ar  1 LIG   0.0000 
 50 CL50    13.9040     6.3930    21.6950 Cl    1 LIG   0.0000 
 51 C51     12.2630     4.2070    21.9730 C.ar  1 LIG   0.0000 
 52 H52     12.4050     4.0590    20.9940 H     1 LIG   0.0000 
 53 C53      9.2930     2.3780    22.1580 C.3   1 LIG   0.0000 
 54 H54      9.0770     2.4550    23.1310 H     1 LIG   0.0000 
 55 H55      9.0360     3.2250    21.6910 H     1 LIG   0.0000 
 56 H56     11.0460     2.1530    21.0380 H     1 LIG   0.0000 
@<TRIPOS>BOND
  1   1   2  2   
  2   2   3  1   
  3   2   7  am  
  4   3   4  1   
  5   3   5  1   
  6   3   6  1   
  7   7   8  1   
  8   7  53  1   
  9   8   9  1   
 10   8  10  1   
 11   8  11  1   
 12  11  12  ar  
 13  11  40  ar  
 14  12  13  1   
 15  12  34  ar  
 16  13  14  1   
 17  14  15  1   
 18  14  16  1   
 19  14  17  1   
 20  17  18  1   
 21  17  19  1   
 22  17  20  1   
 23  20  21  1   
 24  20  31  1   
 25  21  22  1   
 26  21  23  1   
 27  21  24  1   
 28  24  25  1   
 29  24  26  1   
 30  24  27  1   
 31  27  28  1   
 32  28  29  1   
 33  28  30  1   
 34  28  31  1   
 35  31  32  1   
 36  31  33  1   
 37  34  35  1   
 38  34  36  ar  
 39  36  37  1   
 40  36  38  ar  
 41  38  39  1   
 42  38  40  ar  
 43  40  41  1   
 44  41  42  1   
 45  41  53  1   
 46  41  56  1   
 47  42  43  ar  
 48  42  51  ar  
 49  43  44  1   
 50  43  45  ar  
 51  45  46  1   
 52  45  47  ar  
 53  47  48  1   
 54  47  49  ar  
 55  49  50  1   
 56  49  51  ar  
 57  51  52  1   
 58  53  54  1   
 59  53  55  1   
@<TRIPOS>SUBSTRUCTURE
  1 LIG  11 GROUP 4 **** **** 0
@<TRIPOS>PROPERTY_DATA
index	|	ligand549
Name	|	SEA-TRI-fac-1
ChemPlp	|	-96.6218
MM-GBSA Nwat=0	|	-37.435
STDEV0	|	3.2237
MM-GBSA Nwat=30	|	-48.4589
STDEV30	|	5.0164
MM-GBSA Nwat=60	|	-48.5956
STDEV60	|	4.8684
ST.DEV < 10%	|	N
RMSD LIG < 2	|	
DIST < 5	|	
DIST < 3.5	|	N

# MOE 2019.01 (io_trps.svl 2018.10)

@<TRIPOS>MOLECULE
ligand593
56 58 1 0 0 
SMALL
USER_CHARGES


@<TRIPOS>ATOM
  1 O1       5.5010    -3.3550    19.7720 O.2   1 LIG   0.0000 
  2 C2       6.1600    -2.5890    20.4190 C.2   1 LIG   0.0000 
  3 N3       6.6030    -2.9490    21.6640 N.am  1 LIG   0.0000 
  4 C5       7.4100    -2.0100    22.4570 C.3   1 LIG   0.0000 
  5 C8       8.0870    -2.7580    23.5940 C.ar  1 LIG   0.0000 
  6 C9       7.2900    -3.4070    24.5300 C.ar  1 LIG   0.0000 
  7 C11      7.8660    -4.1040    25.5870 C.ar  1 LIG   0.0000 
  8 C13      9.2520    -4.1430    25.6930 C.ar  1 LIG   0.0000 
  9 CL14    10.0000    -5.0320    27.0420 Cl    1 LIG   0.0000 
 10 C15     10.0600    -3.4970    24.7630 C.ar  1 LIG   0.0000 
 11 C17      9.4730    -2.8030    23.7110 C.ar  1 LIG   0.0000 
 12 C18     10.3760    -2.1060    22.7060 C.3   1 LIG   0.0000 
 13 N21     11.1090    -1.0230    23.3760 N.4   1 LIG   1.0000 
 14 C22     11.8430    -0.2900    22.3310 C.3   1 LIG   0.0000 
 15 C25     12.6100     0.8940    22.9010 C.3   1 LIG   0.0000 
 16 N28     11.7840     1.6730    23.8360 N.am  1 LIG   0.0000 
 17 C29     11.9920     3.0560    23.9180 C.2   1 LIG   0.0000 
 18 O30     11.3330     3.7170    24.6720 O.2   1 LIG   0.0000 
 19 C31     13.0510     3.7180    23.0520 C.3   1 LIG   0.0000 
 20 CL34    13.0020     5.4800    23.2980 Cl    1 LIG   0.0000 
 21 C35     10.7440     1.0590    24.6770 C.3   1 LIG   0.0000 
 22 C38     10.1040    -0.1410    23.9930 C.3   1 LIG   0.0000 
 23 C41      6.5020    -1.2170    19.8570 C.3   1 LIG   0.0000 
 24 C42      5.8010    -0.1370    20.6640 C.3   1 LIG   0.0000 
 25 C45      6.1510     1.2240    20.0810 C.3   1 LIG   0.0000 
 26 C48      5.7620     1.2620    18.6110 C.3   1 LIG   0.0000 
 27 O51      6.4040     0.2250    17.8810 O.3   1 LIG   0.0000 
 28 C52      6.0980    -1.0650    18.3970 C.3   1 LIG   0.0000 
 29 H9       6.2940    -3.3730    24.4430 H     1 LIG   0.0000 
 30 H11      7.2920    -4.5700    26.2600 H     1 LIG   0.0000 
 31 H15     11.0560    -3.5320    24.8510 H     1 LIG   0.0000 
 32 H51      6.8180    -1.2970    22.8330 H     1 LIG   0.0000 
 33 H52      8.1050    -1.5920    21.8720 H     1 LIG   0.0000 
 34 H181    11.0260    -2.7650    22.3290 H     1 LIG   0.0000 
 35 H182     9.8200    -1.7250    21.9670 H     1 LIG   0.0000 
 36 H21     11.7360    -1.3870    24.0650 H     1 LIG   0.0000 
 37 H221    11.1900     0.0450    21.6520 H     1 LIG   0.0000 
 38 H222    12.4900    -0.9130    21.8930 H     1 LIG   0.0000 
 39 H251    13.4180     0.5560    23.3850 H     1 LIG   0.0000 
 40 H252    12.8970     1.4880    22.1490 H     1 LIG   0.0000 
 41 H311    13.9540     3.3700    23.3060 H     1 LIG   0.0000 
 42 H312    12.8720     3.5110    22.0900 H     1 LIG   0.0000 
 43 H351    10.0360     1.7400    24.8650 H     1 LIG   0.0000 
 44 H352    11.1560     0.7600    25.5370 H     1 LIG   0.0000 
 45 H381     9.5890    -0.6630    24.6720 H     1 LIG   0.0000 
 46 H382     9.4820     0.1870    23.2820 H     1 LIG   0.0000 
 47 H41      7.4900    -1.0800    19.9300 H     1 LIG   0.0000 
 48 H421     6.1020    -0.1810    21.6160 H     1 LIG   0.0000 
 49 H422     4.8110    -0.2750    20.6210 H     1 LIG   0.0000 
 50 H451     5.6540     1.9360    20.5760 H     1 LIG   0.0000 
 51 H452     7.1340     1.3810    20.1700 H     1 LIG   0.0000 
 52 H481     4.7720     1.1510    18.5330 H     1 LIG   0.0000 
 53 H482     6.0300     2.1460    18.2260 H     1 LIG   0.0000 
 54 H521     6.5840    -1.7510    17.8550 H     1 LIG   0.0000 
 55 H522     5.1120    -1.2170    18.3190 H     1 LIG   0.0000 
 56 H3       6.3780    -3.8500    22.0340 H     1 LIG   0.0000 
@<TRIPOS>BOND
  1   1   2  2   
  2   2   3  am  
  3   2  23  1   
  4   3   4  1   
  5   3  56  1   
  6   4   5  1   
  7   4  32  1   
  8   4  33  1   
  9   5   6  ar  
 10   5  11  ar  
 11   6   7  ar  
 12   6  29  1   
 13   7   8  ar  
 14   7  30  1   
 15   8   9  1   
 16   8  10  ar  
 17  10  11  ar  
 18  10  31  1   
 19  11  12  1   
 20  12  13  1   
 21  12  34  1   
 22  12  35  1   
 23  13  14  1   
 24  13  22  1   
 25  13  36  1   
 26  14  15  1   
 27  14  37  1   
 28  14  38  1   
 29  15  16  1   
 30  15  39  1   
 31  15  40  1   
 32  16  17  am  
 33  16  21  1   
 34  17  18  2   
 35  17  19  1   
 36  19  20  1   
 37  19  41  1   
 38  19  42  1   
 39  21  22  1   
 40  21  43  1   
 41  21  44  1   
 42  22  45  1   
 43  22  46  1   
 44  23  24  1   
 45  23  28  1   
 46  23  47  1   
 47  24  25  1   
 48  24  48  1   
 49  24  49  1   
 50  25  26  1   
 51  25  50  1   
 52  25  51  1   
 53  26  27  1   
 54  26  52  1   
 55  26  53  1   
 56  27  28  1   
 57  28  54  1   
 58  28  55  1   
@<TRIPOS>SUBSTRUCTURE
  1 LIG  22 GROUP 4 **** **** 0
@<TRIPOS>PROPERTY_DATA
index	|	ligand593
Name	|	STU-CHA-7b3-1
ChemPlp	|	-93.824
MM-GBSA Nwat=0	|	-25.7571
STDEV0	|	3.4917
MM-GBSA Nwat=30	|	-48.4433
STDEV30	|	6.0927
MM-GBSA Nwat=60	|	-56.4106
STDEV60	|	5.3456
ST.DEV < 10%	|	N
RMSD LIG < 2	|	
DIST < 5	|	
DIST < 3.5	|	N

# MOE 2019.01 (io_trps.svl 2018.10)

@<TRIPOS>MOLECULE
ligand022
52 54 1 0 0 
SMALL
NO_CHARGES


@<TRIPOS>ATOM
  1 C1       9.7360     8.1340    26.3910 C.2   1 LIG   0.0000 
  2 C4      10.4920     7.4490    25.5850 C.2   1 LIG   0.0000 
  3 C6      10.3500     5.9370    25.5110 C.2   1 LIG   0.0000 
  4 O7       9.5500     5.3750    26.2080 O.2   1 LIG   0.0000 
  5 N8      11.1520     5.2000    24.6300 N.am  1 LIG   0.0000 
  6 C9      12.1300     5.9080    23.7900 C.3   1 LIG   0.0000 
  7 C12     13.3580     5.0490    23.5360 C.3   1 LIG   0.0000 
  8 O15     13.0000     3.7190    23.1840 O.3   1 LIG   0.0000 
  9 C16     12.3370     3.0710    24.2610 C.3   1 LIG   0.0000 
 10 C17     12.0700     1.6110    23.9310 C.ar  1 LIG   0.0000 
 11 C18     12.9610     0.9130    23.1240 C.ar  1 LIG   0.0000 
 12 C20     12.7010    -0.4220    22.8320 C.ar  1 LIG   0.0000 
 13 F21     13.5490    -1.0940    22.0600 F     1 LIG   0.0000 
 14 C22     11.5710    -1.0540    23.3360 C.ar  1 LIG   0.0000 
 15 F23     11.3390    -2.3320    23.0460 F     1 LIG   0.0000 
 16 C24     10.6920    -0.3380    24.1430 C.ar  1 LIG   0.0000 
 17 C25      9.4570    -1.0310    24.6940 C.3   1 LIG   0.0000 
 18 O28      8.9610    -1.9500    23.7310 O.3   1 LIG   0.0000 
 19 C29      7.8020    -2.5920    24.2420 C.3   1 LIG   0.0000 
 20 C30      8.1470    -3.2980    25.5430 C.3   1 LIG   0.0000 
 21 N34      7.3150    -3.5760    23.2650 N.pl3 1 LIG   0.0000 
 22 C36      6.6970    -3.1440    22.0860 C.ar  1 LIG   0.0000 
 23 C37      6.6070    -1.7830    21.8200 C.ar  1 LIG   0.0000 
 24 C39      5.9950    -1.3430    20.6520 C.ar  1 LIG   0.0000 
 25 C41      5.4830    -2.2910    19.7730 C.ar  1 LIG   0.0000 
 26 N43      5.5810    -3.6010    20.0490 N.ar  1 LIG   0.0000 
 27 C44      6.1690    -4.0470    21.1700 C.ar  1 LIG   0.0000 
 28 CL45     6.2940    -5.7860    21.5290 Cl    1 LIG   0.0000 
 29 C46     10.9330     0.9980    24.4470 C.ar  1 LIG   0.0000 
 30 C48     11.0050     3.7380    24.5680 C.3   1 LIG   0.0000 
 31 H18     13.7760     1.3630    22.7580 H     1 LIG   0.0000 
 32 H46     10.2990     1.5090    25.0270 H     1 LIG   0.0000 
 33 H37      6.9820    -1.1210    22.4680 H     1 LIG   0.0000 
 34 H39      5.9240    -0.3660    20.4480 H     1 LIG   0.0000 
 35 H41      5.0390    -1.9950    18.9280 H     1 LIG   0.0000 
 36 H91     12.4090     6.7500    24.2530 H     1 LIG   0.0000 
 37 H92     11.7040     6.1360    22.9140 H     1 LIG   0.0000 
 38 H121    13.8880     5.4510    22.7900 H     1 LIG   0.0000 
 39 H122    13.9160     5.0260    24.3660 H     1 LIG   0.0000 
 40 H16     12.9170     3.1180    25.0740 H     1 LIG   0.0000 
 41 H251     9.6960    -1.5230    25.5310 H     1 LIG   0.0000 
 42 H252     8.7540    -0.3490    24.8960 H     1 LIG   0.0000 
 43 H29      7.0910    -1.9100    24.4120 H     1 LIG   0.0000 
 44 H301     7.3310    -3.7500    25.9040 H     1 LIG   0.0000 
 45 H302     8.8590    -3.9800    25.3740 H     1 LIG   0.0000 
 46 H303     8.4780    -2.6290    26.2080 H     1 LIG   0.0000 
 47 H481    10.3490     3.5050    23.8500 H     1 LIG   0.0000 
 48 H482    10.6670     3.4050    25.4480 H     1 LIG   0.0000 
 49 H11      9.8290     9.1280    26.4390 H     1 LIG   0.0000 
 50 H12      9.0610     7.6670    26.9620 H     1 LIG   0.0000 
 51 H4      11.1660     7.9160    25.0140 H     1 LIG   0.0000 
 52 H34      7.4260    -4.5540    23.4420 H     1 LIG   0.0000 
@<TRIPOS>BOND
  1   1   2  2   
  2   1  49  1   
  3   1  50  1   
  4   2   3  1   
  5   2  51  1   
  6   3   4  2   
  7   3   5  am  
  8   5   6  1   
  9   5  30  1   
 10   6   7  1   
 11   6  36  1   
 12   6  37  1   
 13   7   8  1   
 14   7  38  1   
 15   7  39  1   
 16   8   9  1   
 17   9  10  1   
 18   9  30  1   
 19   9  40  1   
 20  10  11  ar  
 21  10  29  ar  
 22  11  12  ar  
 23  11  31  1   
 24  12  13  1   
 25  12  14  ar  
 26  14  15  1   
 27  14  16  ar  
 28  16  17  1   
 29  16  29  ar  
 30  17  18  1   
 31  17  41  1   
 32  17  42  1   
 33  18  19  1   
 34  19  20  1   
 35  19  21  1   
 36  19  43  1   
 37  20  44  1   
 38  20  45  1   
 39  20  46  1   
 40  21  22  1   
 41  21  52  1   
 42  22  23  ar  
 43  22  27  ar  
 44  23  24  ar  
 45  23  33  1   
 46  24  25  ar  
 47  24  34  1   
 48  25  26  ar  
 49  25  35  1   
 50  26  27  ar  
 51  27  28  1   
 52  29  32  1   
 53  30  47  1   
 54  30  48  1   
@<TRIPOS>SUBSTRUCTURE
  1 LIG  16 GROUP 4 **** **** 0
@<TRIPOS>PROPERTY_DATA
index	|	ligand022
Name	|	BEN-VAN-77c-5
ChemPlp	|	-100.419
MM-GBSA Nwat=0	|	-27.6672
STDEV0	|	3.4864
MM-GBSA Nwat=30	|	-48.2945
STDEV30	|	5.061
MM-GBSA Nwat=60	|	-57.8711
STDEV60	|	5.0236
ST.DEV < 10%	|	N
RMSD LIG < 2	|	
DIST < 5	|	
DIST < 3.5	|	N

# MOE 2019.01 (io_trps.svl 2018.10)

@<TRIPOS>MOLECULE
ligand421
50 53 1 0 0 
SMALL
USER_CHARGES


@<TRIPOS>ATOM
  1 O1       5.5020    -2.8280    20.1320 O.2   1 LIG   0.0000 
  2 C2       6.1100    -1.8030    20.2740 C.2   1 LIG   0.0000 
  3 C3       5.5000    -0.4880    19.8140 C.3   1 LIG   0.0000 
  4 CL6      6.3950     0.1170    18.3990 Cl    1 LIG   0.0000 
  5 N7       7.3800    -1.8170    20.8630 N.am  1 LIG   0.0000 
  6 C8       8.0880    -0.5360    21.0140 C.3   1 LIG   0.0000 
  7 C11      8.9780    -0.5240    22.2490 C.3   1 LIG   0.0000 
  8 N14      9.7580    -1.7660    22.3740 N.4   1 LIG   1.0000 
  9 C15     10.6110    -1.6320    23.5650 C.3   1 LIG   0.0000 
 10 C18      9.7400    -1.5940    24.8110 C.ar  1 LIG   0.0000 
 11 C19      9.2720    -0.3540    25.2330 C.ar  1 LIG   0.0000 
 12 C21      8.4720    -0.2690    26.3690 C.ar  1 LIG   0.0000 
 13 C23      8.1360    -1.4130    27.0860 C.ar  1 LIG   0.0000 
 14 C25      8.6010    -2.6560    26.6690 C.ar  1 LIG   0.0000 
 15 C26      8.2550    -3.7920    27.3950 C.ar  1 LIG   0.0000 
 16 C28      8.7200    -5.0330    26.9750 C.ar  1 LIG   0.0000 
 17 C30      9.5220    -5.1480    25.8440 C.ar  1 LIG   0.0000 
 18 C32      9.8510    -3.9950    25.1400 C.ar  1 LIG   0.0000 
 19 C34      9.4010    -2.7380    25.5320 C.ar  1 LIG   0.0000 
 20 C35      8.8060    -2.8720    22.5620 C.3   1 LIG   0.0000 
 21 C38      7.9710    -3.0890    21.3100 C.3   1 LIG   0.0000 
 22 C39      6.9210    -4.1410    21.6300 C.ar  1 LIG   0.0000 
 23 C40      6.8010    -5.2720    20.8310 C.ar  1 LIG   0.0000 
 24 C42      5.8390    -6.2320    21.1280 C.ar  1 LIG   0.0000 
 25 C44      5.0120    -6.0320    22.2290 C.ar  1 LIG   0.0000 
 26 N46      5.1410    -4.9340    22.9880 N.ar  1 LIG   0.0000 
 27 C47      6.0630    -4.0000    22.7160 C.ar  1 LIG   0.0000 
 28 H19      9.5090     0.4730    24.7230 H     1 LIG   0.0000 
 29 H21      8.1360     0.6220    26.6720 H     1 LIG   0.0000 
 30 H23      7.5610    -1.3420    27.9000 H     1 LIG   0.0000 
 31 H26      7.6790    -3.7160    28.2090 H     1 LIG   0.0000 
 32 H28      8.4740    -5.8530    27.4920 H     1 LIG   0.0000 
 33 H30      9.8560    -6.0420    25.5440 H     1 LIG   0.0000 
 34 H32     10.4280    -4.0720    24.3270 H     1 LIG   0.0000 
 35 H40      7.4060    -5.3960    20.0450 H     1 LIG   0.0000 
 36 H42      5.7440    -7.0500    20.5600 H     1 LIG   0.0000 
 37 H44      4.3160    -6.7130    22.4560 H     1 LIG   0.0000 
 38 H47      6.1350    -3.1920    23.3010 H     1 LIG   0.0000 
 39 H31      4.5430    -0.6340    19.5650 H     1 LIG   0.0000 
 40 H32      5.5550     0.1820    20.5540 H     1 LIG   0.0000 
 41 H81      7.4140     0.1990    21.0950 H     1 LIG   0.0000 
 42 H82      8.6540    -0.3810    20.2050 H     1 LIG   0.0000 
 43 H111     9.6090     0.2490    22.1850 H     1 LIG   0.0000 
 44 H112     8.4040    -0.4200    23.0610 H     1 LIG   0.0000 
 45 H14     10.3150    -1.9160    21.5580 H     1 LIG   0.0000 
 46 H151    11.1410    -0.7870    23.5020 H     1 LIG   0.0000 
 47 H152    11.2340    -2.4130    23.6180 H     1 LIG   0.0000 
 48 H351     8.1990    -2.6540    23.3260 H     1 LIG   0.0000 
 49 H352     9.3130    -3.7090    22.7670 H     1 LIG   0.0000 
 50 H38      8.5650    -3.4390    20.5850 H     1 LIG   0.0000 
@<TRIPOS>BOND
  1   1   2  2   
  2   2   3  1   
  3   2   5  am  
  4   3   4  1   
  5   3  39  1   
  6   3  40  1   
  7   5   6  1   
  8   5  21  1   
  9   6   7  1   
 10   6  41  1   
 11   6  42  1   
 12   7   8  1   
 13   7  43  1   
 14   7  44  1   
 15   8   9  1   
 16   8  20  1   
 17   8  45  1   
 18   9  10  1   
 19   9  46  1   
 20   9  47  1   
 21  10  11  ar  
 22  10  19  ar  
 23  11  12  ar  
 24  11  28  1   
 25  12  13  ar  
 26  12  29  1   
 27  13  14  ar  
 28  13  30  1   
 29  14  15  ar  
 30  14  19  ar  
 31  15  16  ar  
 32  15  31  1   
 33  16  17  ar  
 34  16  32  1   
 35  17  18  ar  
 36  17  33  1   
 37  18  19  ar  
 38  18  34  1   
 39  20  21  1   
 40  20  48  1   
 41  20  49  1   
 42  21  22  1   
 43  21  50  1   
 44  22  23  ar  
 45  22  27  ar  
 46  23  24  ar  
 47  23  35  1   
 48  24  25  ar  
 49  24  36  1   
 50  25  26  ar  
 51  25  37  1   
 52  26  27  ar  
 53  27  38  1   
@<TRIPOS>SUBSTRUCTURE
  1 LIG  20 GROUP 4 **** **** 0
@<TRIPOS>PROPERTY_DATA
index	|	ligand421
Name	|	MIH-UNI-e57-2
ChemPlp	|	-94.4513
MM-GBSA Nwat=0	|	-23.3985
STDEV0	|	3.0545
MM-GBSA Nwat=30	|	-47.0516
STDEV30	|	5.1394
MM-GBSA Nwat=60	|	-52.3359
STDEV60	|	4.3733
ST.DEV < 10%	|	N
RMSD LIG < 2	|	
DIST < 5	|	
DIST < 3.5	|	N

# MOE 2019.01 (io_trps.svl 2018.10)

@<TRIPOS>MOLECULE
ligand355
61 62 1 0 0 
SMALL
USER_CHARGES


@<TRIPOS>ATOM
  1 C1       7.5030     3.5580    22.3180 C.3   1 LIG   0.0000 
  2 N5       8.9690     3.5300    22.4220 N.am  1 LIG   0.0000 
  3 C7       9.5660     3.1370    23.5900 C.2   1 LIG   0.0000 
  4 O8       8.8920     2.8150    24.5300 O.2   1 LIG   0.0000 
  5 C9      11.0820     3.1080    23.6970 C.3   1 LIG   0.0000 
  6 N10     11.6640     3.9390    22.6330 N.4   1 LIG   1.0000 
  7 C13     11.9710     5.2740    23.1660 C.3   1 LIG   0.0000 
  8 C16     10.6960     5.9160    23.6880 C.3   1 LIG   0.0000 
  9 N19      9.6990     5.9730    22.6090 N.am  1 LIG   0.0000 
 10 C21      8.5030     6.6080    22.8150 C.2   1 LIG   0.0000 
 11 C22      7.4720     6.6670    21.6990 C.3   1 LIG   0.0000 
 12 O26      8.2680     7.1170    23.8760 O.2   1 LIG   0.0000 
 13 C27     11.5730     1.6770    23.5480 C.ar  1 LIG   0.0000 
 14 C28     12.8400     1.4370    23.0270 C.ar  1 LIG   0.0000 
 15 C30     13.2820     0.1250    22.8940 C.ar  1 LIG   0.0000 
 16 C32     12.4740    -0.9420    23.2750 C.ar  1 LIG   0.0000 
 17 C34     11.2100    -0.6800    23.7940 C.ar  1 LIG   0.0000 
 18 C35     10.3130    -1.8330    24.2160 C.3   1 LIG   0.0000 
 19 N38      9.6880    -2.4280    23.0260 N.4   1 LIG   1.0000 
 20 C40      8.7170    -3.4270    23.5040 C.3   1 LIG   0.0000 
 21 C43      7.9660    -4.0840    22.3550 C.3   1 LIG   0.0000 
 22 N46      7.5040    -3.0890    21.3740 N.am  1 LIG   0.0000 
 23 C47      6.3050    -3.3310    20.6930 C.2   1 LIG   0.0000 
 24 O48      5.6800    -4.3320    20.9150 O.2   1 LIG   0.0000 
 25 C49      5.7950    -2.3280    19.6720 C.3   1 LIG   0.0000 
 26 CL52     5.8170    -0.6960    20.3830 Cl    1 LIG   0.0000 
 27 C53      8.2440    -1.8490    21.0920 C.3   1 LIG   0.0000 
 28 C56      8.9830    -1.3430    22.3230 C.3   1 LIG   0.0000 
 29 C59     10.7500     0.6250    23.9350 C.ar  1 LIG   0.0000 
 30 H28     13.4270     2.1990    22.7510 H     1 LIG   0.0000 
 31 H30     14.1920    -0.0540    22.5200 H     1 LIG   0.0000 
 32 H32     12.7970    -1.8830    23.1770 H     1 LIG   0.0000 
 33 H59      9.8400     0.8040    24.3090 H     1 LIG   0.0000 
 34 H11      7.2390     3.8670    21.4050 H     1 LIG   0.0000 
 35 H12      7.1400     2.6400    22.4780 H     1 LIG   0.0000 
 36 H13      7.1330     4.1870    23.0020 H     1 LIG   0.0000 
 37 H9      11.3600     3.4650    24.5890 H     1 LIG   0.0000 
 38 H101    11.0110     4.0220    21.8800 H     1 LIG   0.0000 
 39 H102    12.5050     3.5120    22.2990 H     1 LIG   0.0000 
 40 H131    12.3580     5.8420    22.4400 H     1 LIG   0.0000 
 41 H132    12.6320     5.1910    23.9130 H     1 LIG   0.0000 
 42 H161    10.3360     5.3740    24.4460 H     1 LIG   0.0000 
 43 H162    10.8960     6.8430    24.0060 H     1 LIG   0.0000 
 44 H221     7.8280     6.1960    20.8910 H     1 LIG   0.0000 
 45 H222     6.6290     6.2210    22.0000 H     1 LIG   0.0000 
 46 H223     7.2810     7.6220    21.4720 H     1 LIG   0.0000 
 47 H351    10.8590    -2.5250    24.6870 H     1 LIG   0.0000 
 48 H352     9.6020    -1.4940    24.8310 H     1 LIG   0.0000 
 49 H38     10.3740    -2.8510    22.4340 H     1 LIG   0.0000 
 50 H401     8.0580    -2.9750    24.1050 H     1 LIG   0.0000 
 51 H402     9.2060    -4.1330    24.0160 H     1 LIG   0.0000 
 52 H431     8.5740    -4.7320    21.8980 H     1 LIG   0.0000 
 53 H432     7.1740    -4.5710    22.7220 H     1 LIG   0.0000 
 54 H491     6.3830    -2.3470    18.8640 H     1 LIG   0.0000 
 55 H492     4.8600    -2.5650    19.4100 H     1 LIG   0.0000 
 56 H531     7.5980    -1.1470    20.7910 H     1 LIG   0.0000 
 57 H532     8.9080    -2.0260    20.3660 H     1 LIG   0.0000 
 58 H561     9.6510    -0.6550    22.0380 H     1 LIG   0.0000 
 59 H562     8.3220    -0.9280    22.9480 H     1 LIG   0.0000 
 60 H5       9.5310     3.7990    21.6390 H     1 LIG   0.0000 
 61 H19      9.8950     5.5490    21.7250 H     1 LIG   0.0000 
@<TRIPOS>BOND
  1   1   2  1   
  2   1  34  1   
  3   1  35  1   
  4   1  36  1   
  5   2   3  am  
  6   2  60  1   
  7   3   4  2   
  8   3   5  1   
  9   5   6  1   
 10   5  13  1   
 11   5  37  1   
 12   6   7  1   
 13   6  38  1   
 14   6  39  1   
 15   7   8  1   
 16   7  40  1   
 17   7  41  1   
 18   8   9  1   
 19   8  42  1   
 20   8  43  1   
 21   9  10  am  
 22   9  61  1   
 23  10  11  1   
 24  10  12  2   
 25  11  44  1   
 26  11  45  1   
 27  11  46  1   
 28  13  14  ar  
 29  13  29  ar  
 30  14  15  ar  
 31  14  30  1   
 32  15  16  ar  
 33  15  31  1   
 34  16  17  ar  
 35  16  32  1   
 36  17  18  1   
 37  17  29  ar  
 38  18  19  1   
 39  18  47  1   
 40  18  48  1   
 41  19  20  1   
 42  19  28  1   
 43  19  49  1   
 44  20  21  1   
 45  20  50  1   
 46  20  51  1   
 47  21  22  1   
 48  21  52  1   
 49  21  53  1   
 50  22  23  am  
 51  22  27  1   
 52  23  24  2   
 53  23  25  1   
 54  25  26  1   
 55  25  54  1   
 56  25  55  1   
 57  27  28  1   
 58  27  56  1   
 59  27  57  1   
 60  28  58  1   
 61  28  59  1   
 62  29  33  1   
@<TRIPOS>SUBSTRUCTURE
  1 LIG  29 GROUP 4 **** **** 0
@<TRIPOS>PROPERTY_DATA
index	|	ligand355
Name	|	MAK-UNK-9d4-1
ChemPlp	|	-99.6021
MM-GBSA Nwat=0	|	-14.6602
STDEV0	|	2.5794
MM-GBSA Nwat=30	|	-46.9535
STDEV30	|	7.2691
MM-GBSA Nwat=60	|	-77.3049
STDEV60	|	6.7047
ST.DEV < 10%	|	N
RMSD LIG < 2	|	
DIST < 5	|	
DIST < 3.5	|	N

# MOE 2019.01 (io_trps.svl 2018.10)

@<TRIPOS>MOLECULE
ligand007
48 51 1 0 0 
SMALL
NO_CHARGES


@<TRIPOS>ATOM
  1 C1       8.9720     7.4400    25.3730 C.2   1 LIG   0.0000 
  2 H2       9.0420     7.8590    26.2780 H     1 LIG   0.0000 
  3 H3       8.1710     7.6150    24.8010 H     1 LIG   0.0000 
  4 C4       9.9230     6.6660    24.9400 C.2   1 LIG   0.0000 
  5 H5      10.7240     6.4910    25.5120 H     1 LIG   0.0000 
  6 C6       9.8170     6.0290    23.5640 C.2   1 LIG   0.0000 
  7 O7       8.8360     6.2050    22.8950 O.2   1 LIG   0.0000 
  8 N8      10.8420     5.2550    23.0860 N.am  1 LIG   0.0000 
  9 H9      10.7720     4.8360    22.1810 H     1 LIG   0.0000 
 10 C10     12.0440     5.0400    23.9050 C.3   1 LIG   0.0000 
 11 H11     11.7870     5.0030    24.8710 H     1 LIG   0.0000 
 12 H12     12.6850     5.7940    23.7600 H     1 LIG   0.0000 
 13 C13     12.7020     3.7300    23.5050 C.3   1 LIG   0.0000 
 14 H14     12.8570     3.7240    22.5170 H     1 LIG   0.0000 
 15 H15     13.5770     3.6380    23.9810 H     1 LIG   0.0000 
 16 C16     11.7950     2.5720    23.8820 C.2   1 LIG   0.0000 
 17 C17     10.6900     2.6680    24.6770 C.2   1 LIG   0.0000 
 18 H18     10.3420     3.5020    25.1050 H     1 LIG   0.0000 
 19 N19     10.1460     1.4210    24.7800 N.pl3 1 LIG   0.0000 
 20 H20      9.3250     1.1800    25.2980 H     1 LIG   0.0000 
 21 C21     10.9160     0.5590    24.0520 C.ar  1 LIG   0.0000 
 22 C22     10.7820    -0.8100    23.8460 C.ar  1 LIG   0.0000 
 23 N23      9.7140    -1.4860    24.4480 N.pl3 1 LIG   0.0000 
 24 H24      9.0760    -0.9900    25.0370 H     1 LIG   0.0000 
 25 C25      9.5300    -2.9260    24.2130 C.3   1 LIG   0.0000 
 26 H26      9.2040    -3.3610    25.0520 H     1 LIG   0.0000 
 27 H27     10.4030    -3.3340    23.9430 H     1 LIG   0.0000 
 28 C28      8.5080    -3.1330    23.1020 C.ar  1 LIG   0.0000 
 29 C29      7.9940    -4.4080    22.8900 C.ar  1 LIG   0.0000 
 30 H30      8.2960    -5.1700    23.4620 H     1 LIG   0.0000 
 31 C31      7.0600    -4.6230    21.8810 C.ar  1 LIG   0.0000 
 32 H32      6.6940    -5.5420    21.7340 H     1 LIG   0.0000 
 33 C33      6.6290    -3.5730    21.0770 C.ar  1 LIG   0.0000 
 34 N34      5.7400    -3.5460    20.0400 N.2   1 LIG   0.0000 
 35 C36      5.6660    -2.3150    19.5840 C.2   1 LIG   0.0000 
 36 H37      5.0900    -2.0070    18.8260 H     1 LIG   0.0000 
 37 N38      6.5050    -1.5260    20.3190 N.pl3 1 LIG   0.0000 
 38 C39      7.1190    -2.3000    21.2620 C.ar  1 LIG   0.0000 
 39 C40      8.0550    -2.1020    22.2780 C.ar  1 LIG   0.0000 
 40 H41      8.4170    -1.1810    22.4210 H     1 LIG   0.0000 
 41 C42     11.6880    -1.5100    23.0550 C.ar  1 LIG   0.0000 
 42 H43     11.5800    -2.4940    22.9160 H     1 LIG   0.0000 
 43 C44     12.7440    -0.8280    22.4600 C.ar  1 LIG   0.0000 
 44 F45     13.6030    -1.5070    21.7040 F     1 LIG   0.0000 
 45 C46     12.8730     0.5400    22.6700 C.ar  1 LIG   0.0000 
 46 H47     13.6310     1.0340    22.2430 H     1 LIG   0.0000 
 47 C48     11.9640     1.2330    23.4640 C.ar  1 LIG   0.0000 
 48 H        6.6460    -0.5450    20.1880 H     1 LIG   0.0000 
@<TRIPOS>BOND
  1   1   2  1   
  2   1   3  1   
  3   1   4  2   
  4   4   5  1   
  5   4   6  1   
  6   6   7  2   
  7   6   8  am  
  8   8   9  1   
  9   8  10  1   
 10  10  11  1   
 11  10  12  1   
 12  10  13  1   
 13  13  14  1   
 14  13  15  1   
 15  13  16  1   
 16  16  17  2   
 17  16  47  1   
 18  17  18  1   
 19  17  19  1   
 20  19  20  1   
 21  19  21  1   
 22  21  22  ar  
 23  21  47  ar  
 24  22  23  1   
 25  22  41  ar  
 26  23  24  1   
 27  23  25  1   
 28  25  26  1   
 29  25  27  1   
 30  25  28  1   
 31  28  29  ar  
 32  28  39  ar  
 33  29  30  1   
 34  29  31  ar  
 35  31  32  1   
 36  31  33  ar  
 37  33  34  1   
 38  33  38  ar  
 39  34  35  2   
 40  35  36  1   
 41  35  37  1   
 42  37  38  1   
 43  37  48  1   
 44  38  39  ar  
 45  39  40  1   
 46  41  42  1   
 47  41  43  ar  
 48  43  44  1   
 49  43  45  ar  
 50  45  46  1   
 51  45  47  ar  
@<TRIPOS>SUBSTRUCTURE
  1 LIG  21 GROUP 4 **** **** 0
@<TRIPOS>PROPERTY_DATA
index	|	ligand007
Name	|	ANT-OPE-b90-1
ChemPlp	|	-100.696
MM-GBSA Nwat=0	|	-22.9879
STDEV0	|	2.467
MM-GBSA Nwat=30	|	-46.6833
STDEV30	|	7.9071
MM-GBSA Nwat=60	|	-57.309
STDEV60	|	11.5461
ST.DEV < 10%	|	N
RMSD LIG < 2	|	
DIST < 5	|	
DIST < 3.5	|	N

# MOE 2019.01 (io_trps.svl 2018.10)

@<TRIPOS>MOLECULE
ligand509
54 56 1 0 0 
SMALL
NO_CHARGES


@<TRIPOS>ATOM
  1 N1      14.8790    -0.7500    22.1940 N.1   1 LIG   0.0000 
  2 C2      13.8990    -0.3270    22.5950 C.1   1 LIG   0.0000 
  3 C3      12.5930     0.2370    23.1300 C.ar  1 LIG   0.0000 
  4 C4      12.5210     0.6680    24.4500 C.ar  1 LIG   0.0000 
  5 H5      13.3220     0.6080    25.0460 H     1 LIG   0.0000 
  6 C6      11.3210     1.1820    24.9320 C.ar  1 LIG   0.0000 
  7 H7      11.2630     1.4930    25.8800 H     1 LIG   0.0000 
  8 C8      10.2020     1.2690    24.1110 C.ar  1 LIG   0.0000 
  9 H9       9.3420     1.6390    24.4630 H     1 LIG   0.0000 
 10 C10     10.2950     0.8320    22.7930 C.ar  1 LIG   0.0000 
 11 C11      9.0820     0.9200    21.8810 C.3   1 LIG   0.0000 
 12 C12      8.2780     2.1630    22.2250 C.3   1 LIG   0.0000 
 13 H13      7.8670     2.0540    23.1300 H     1 LIG   0.0000 
 14 H14      7.5560     2.2920    21.5440 H     1 LIG   0.0000 
 15 C15      9.1950     3.3750    22.2260 C.3   1 LIG   0.0000 
 16 H16      9.8450     3.3000    22.9830 H     1 LIG   0.0000 
 17 H17      9.6940     3.4170    21.3610 H     1 LIG   0.0000 
 18 C18      8.3660     4.6380    22.3940 C.ar  1 LIG   0.0000 
 19 C19      8.9500     5.7720    22.9500 C.ar  1 LIG   0.0000 
 20 H20      9.9080     5.7530    23.2380 H     1 LIG   0.0000 
 21 C21      8.1960     6.9300    23.1040 C.ar  1 LIG   0.0000 
 22 H22      8.6080     7.7500    23.5040 H     1 LIG   0.0000 
 23 C23      6.8660     6.9400    22.6990 C.ar  1 LIG   0.0000 
 24 C24      6.0370     8.2040    22.8640 C.3   1 LIG   0.0000 
 25 F25      6.7040     9.0770    23.6140 F     1 LIG   0.0000 
 26 F26      5.8000     8.7380    21.6690 F     1 LIG   0.0000 
 27 F27      4.8830     7.9040    23.4530 F     1 LIG   0.0000 
 28 C28      6.2800     5.8080    22.1440 C.ar  1 LIG   0.0000 
 29 H29      5.3230     5.8260    21.8560 H     1 LIG   0.0000 
 30 C30      7.0340     4.6490    21.9900 C.ar  1 LIG   0.0000 
 31 H31      6.6210     3.8290    21.5940 H     1 LIG   0.0000 
 32 N32      8.2440    -0.2720    22.0650 N.3   1 LIG   0.0000 
 33 C33      7.1870    -0.2120    21.0430 C.3   1 LIG   0.0000 
 34 H34      7.6120    -0.1800    20.1380 H     1 LIG   0.0000 
 35 H35      6.6430     0.6150    21.1860 H     1 LIG   0.0000 
 36 C36      6.2700    -1.4240    21.1130 C.3   1 LIG   0.0000 
 37 H37      5.6660    -1.3300    21.9050 H     1 LIG   0.0000 
 38 H38      5.7210    -1.4660    20.2780 H     1 LIG   0.0000 
 39 N39      7.0370    -2.6740    21.2440 N.am  1 LIG   0.0000 
 40 C40      6.5280    -3.8460    20.6760 C.2   1 LIG   0.0000 
 41 O41      5.4800    -3.8240    20.0910 O.2   1 LIG   0.0000 
 42 C42      7.3030    -5.1480    20.7980 C.3   1 LIG   0.0000 
 43 H43      7.3580    -5.5880    19.9020 H     1 LIG   0.0000 
 44 H44      8.2260    -4.9570    21.1320 H     1 LIG   0.0000 
 45 CL45     6.4700    -6.2290    21.9400 Cl    1 LIG   0.0000 
 46 C46      8.3280    -2.7430    21.9460 C.3   1 LIG   0.0000 
 47 H47      8.8710    -3.4870    21.5570 H     1 LIG   0.0000 
 48 H48      8.1640    -2.9210    22.9160 H     1 LIG   0.0000 
 49 C49      9.1010    -1.4390    21.8050 C.3   1 LIG   0.0000 
 50 H50      9.8570    -1.4380    22.4590 H     1 LIG   0.0000 
 51 H51      9.4630    -1.3760    20.8750 H     1 LIG   0.0000 
 52 C52     11.4850     0.3150    22.2920 C.ar  1 LIG   0.0000 
 53 H53     11.5430     0.0040    21.3440 H     1 LIG   0.0000 
 54 H54      9.3840     0.9710    20.9290 H     1 LIG   0.0000 
@<TRIPOS>BOND
  1   1   2  3   
  2   2   3  1   
  3   3   4  ar  
  4   3  52  ar  
  5   4   5  1   
  6   4   6  ar  
  7   6   7  1   
  8   6   8  ar  
  9   8   9  1   
 10   8  10  ar  
 11  10  11  1   
 12  10  52  ar  
 13  11  12  1   
 14  11  32  1   
 15  11  54  1   
 16  12  13  1   
 17  12  14  1   
 18  12  15  1   
 19  15  16  1   
 20  15  17  1   
 21  15  18  1   
 22  18  19  ar  
 23  18  30  ar  
 24  19  20  1   
 25  19  21  ar  
 26  21  22  1   
 27  21  23  ar  
 28  23  24  1   
 29  23  28  ar  
 30  24  25  1   
 31  24  26  1   
 32  24  27  1   
 33  28  29  1   
 34  28  30  ar  
 35  30  31  1   
 36  32  33  1   
 37  32  49  1   
 38  33  34  1   
 39  33  35  1   
 40  33  36  1   
 41  36  37  1   
 42  36  38  1   
 43  36  39  1   
 44  39  40  am  
 45  39  46  1   
 46  40  41  2   
 47  40  42  1   
 48  42  43  1   
 49  42  44  1   
 50  42  45  1   
 51  46  47  1   
 52  46  48  1   
 53  46  49  1   
 54  49  50  1   
 55  49  51  1   
 56  52  53  1   
@<TRIPOS>SUBSTRUCTURE
  1 LIG  12 GROUP 4 **** **** 0
@<TRIPOS>PROPERTY_DATA
index	|	ligand509
Name	|	PAU-WEI-b9b-5
ChemPlp	|	-93.5285
MM-GBSA Nwat=0	|	-41.1709
STDEV0	|	4.084
MM-GBSA Nwat=30	|	-46.6664
STDEV30	|	5.0356
MM-GBSA Nwat=60	|	-49.8735
STDEV60	|	5.0168
ST.DEV < 10%	|	N
RMSD LIG < 2	|	
DIST < 5	|	
DIST < 3.5	|	N

# MOE 2019.01 (io_trps.svl 2018.10)

@<TRIPOS>MOLECULE
ligand226
61 64 1 0 0 
SMALL
NO_CHARGES


@<TRIPOS>ATOM
  1 C1       9.9610     9.7700    27.1050 C.2   1 LIG   0.0000 
  2 H2      10.3610    10.6790    27.2270 H     1 LIG   0.0000 
  3 H3       9.0440     9.5760    27.4540 H     1 LIG   0.0000 
  4 C4      10.6330     8.8410    26.4920 C.2   1 LIG   0.0000 
  5 H5      11.5500     9.0350    26.1430 H     1 LIG   0.0000 
  6 C6      10.0260     7.4600    26.3060 C.2   1 LIG   0.0000 
  7 O7       8.9250     7.2280    26.7250 O.2   1 LIG   0.0000 
  8 N8      10.7500     6.4600    25.6480 N.am  1 LIG   0.0000 
  9 C9      12.0980     6.7670    25.1430 C.3   1 LIG   0.0000 
 10 H10     12.7700     6.5350    25.8470 H     1 LIG   0.0000 
 11 H11     12.1530     7.7450    24.9380 H     1 LIG   0.0000 
 12 C12     12.4130     5.9790    23.8800 C.3   1 LIG   0.0000 
 13 H13     11.9110     6.3800    23.1140 H     1 LIG   0.0000 
 14 H14     13.3950     6.0340    23.7000 H     1 LIG   0.0000 
 15 N15     12.0300     4.5650    24.0140 N.3   1 LIG   0.0000 
 16 C16     12.3450     3.9160    22.7340 C.3   1 LIG   0.0000 
 17 H17     13.2990     4.0950    22.4950 H     1 LIG   0.0000 
 18 H18     11.7480     4.2800    22.0200 H     1 LIG   0.0000 
 19 C19     12.1270     2.4160    22.8600 C.ar  1 LIG   0.0000 
 20 C20     13.0960     1.6490    23.4980 C.ar  1 LIG   0.0000 
 21 H21     13.9200     2.0790    23.8660 H     1 LIG   0.0000 
 22 C22     12.9040     0.2760    23.6160 C.ar  1 LIG   0.0000 
 23 H23     13.5900    -0.2930    24.0710 H     1 LIG   0.0000 
 24 C24     11.7480    -0.2970    23.0960 C.ar  1 LIG   0.0000 
 25 H25     11.6120    -1.2840    23.1830 H     1 LIG   0.0000 
 26 C26     10.7760     0.4680    22.4580 C.ar  1 LIG   0.0000 
 27 C27      9.5310     0.2330    21.8320 C.2   1 LIG   0.0000 
 28 C28      8.8560    -1.1210    21.6900 C.3   1 LIG   0.0000 
 29 H29      9.3930    -1.8140    22.1720 H     1 LIG   0.0000 
 30 H30      8.7930    -1.3620    20.7220 H     1 LIG   0.0000 
 31 C31      7.4600    -1.0570    22.2880 C.3   1 LIG   0.0000 
 32 H32      7.5230    -1.0830    23.2850 H     1 LIG   0.0000 
 33 H33      7.0150    -0.2080    22.0040 H     1 LIG   0.0000 
 34 N34      6.6710    -2.2040    21.8160 N.am  1 LIG   0.0000 
 35 H35      6.5150    -2.9860    22.4200 H     1 LIG   0.0000 
 36 C36      6.1510    -2.2040    20.5490 C.2   1 LIG   0.0000 
 37 O37      5.5080    -3.1400    20.1640 O.2   1 LIG   0.0000 
 38 C38      6.3890    -1.0170    19.6310 C.3   1 LIG   0.0000 
 39 C39      5.7340     0.2340    20.1860 C.3   1 LIG   0.0000 
 40 H40      6.2860     0.6380    20.9150 H     1 LIG   0.0000 
 41 H41      4.8160     0.0380    20.5320 H     1 LIG   0.0000 
 42 C42      5.6780     1.1460    18.9750 C.3   1 LIG   0.0000 
 43 H43      4.8700     1.7340    19.0100 H     1 LIG   0.0000 
 44 H44      6.5000     1.7120    18.9180 H     1 LIG   0.0000 
 45 C45      5.5990     0.1930    17.7960 C.3   1 LIG   0.0000 
 46 H46      4.7320     0.3120    17.3140 H     1 LIG   0.0000 
 47 H47      6.3570     0.3600    17.1660 H     1 LIG   0.0000 
 48 N48      5.6900    -1.1630    18.3510 N.3   1 LIG   0.0000 
 49 H49      4.7770    -1.5440    18.4930 H     1 LIG   0.0000 
 50 C50      9.0280     1.4160    21.3750 C.2   1 LIG   0.0000 
 51 H51      8.1600     1.5430    20.8950 H     1 LIG   0.0000 
 52 N52      9.9240     2.3950    21.6920 N.pl3 1 LIG   0.0000 
 53 H53      9.8250     3.3670    21.4810 H     1 LIG   0.0000 
 54 C54     10.9790     1.8250    22.3470 C.ar  1 LIG   0.0000 
 55 C55     10.5720     4.4740    24.1900 C.3   1 LIG   0.0000 
 56 H56     10.3070     3.5110    24.2110 H     1 LIG   0.0000 
 57 H57     10.1240     4.9270    23.4190 H     1 LIG   0.0000 
 58 C58     10.1220     5.1390    25.4820 C.3   1 LIG   0.0000 
 59 H59      9.1290     5.2500    25.4640 H     1 LIG   0.0000 
 60 H60     10.3780     4.5580    26.2540 H     1 LIG   0.0000 
 61 H61      7.3680    -0.8700    19.4860 H     1 LIG   0.0000 
@<TRIPOS>BOND
  1   1   2  1   
  2   1   3  1   
  3   1   4  2   
  4   4   5  1   
  5   4   6  1   
  6   6   7  2   
  7   6   8  am  
  8   8   9  1   
  9   8  58  1   
 10   9  10  1   
 11   9  11  1   
 12   9  12  1   
 13  12  13  1   
 14  12  14  1   
 15  12  15  1   
 16  15  16  1   
 17  15  55  1   
 18  16  17  1   
 19  16  18  1   
 20  16  19  1   
 21  19  20  ar  
 22  19  54  ar  
 23  20  21  1   
 24  20  22  ar  
 25  22  23  1   
 26  22  24  ar  
 27  24  25  1   
 28  24  26  ar  
 29  26  27  1   
 30  26  54  ar  
 31  27  28  1   
 32  27  50  2   
 33  28  29  1   
 34  28  30  1   
 35  28  31  1   
 36  31  32  1   
 37  31  33  1   
 38  31  34  1   
 39  34  35  1   
 40  34  36  am  
 41  36  37  2   
 42  36  38  1   
 43  38  39  1   
 44  38  48  1   
 45  38  61  1   
 46  39  40  1   
 47  39  41  1   
 48  39  42  1   
 49  42  43  1   
 50  42  44  1   
 51  42  45  1   
 52  45  46  1   
 53  45  47  1   
 54  45  48  1   
 55  48  49  1   
 56  50  51  1   
 57  50  52  1   
 58  52  53  1   
 59  52  54  1   
 60  55  56  1   
 61  55  57  1   
 62  55  58  1   
 63  58  59  1   
 64  58  60  1   
@<TRIPOS>SUBSTRUCTURE
  1 LIG  52 GROUP 4 **** **** 0
@<TRIPOS>PROPERTY_DATA
index	|	ligand226
Name	|	JAN-GHE-641-6
ChemPlp	|	-100.434
MM-GBSA Nwat=0	|	-25.1932
STDEV0	|	5.4819
MM-GBSA Nwat=30	|	-46.629
STDEV30	|	9.0545
MM-GBSA Nwat=60	|	-67.5896
STDEV60	|	6.6808
ST.DEV < 10%	|	N
RMSD LIG < 2	|	
DIST < 5	|	
DIST < 3.5	|	N

# MOE 2019.01 (io_trps.svl 2018.10)

@<TRIPOS>MOLECULE
ligand501
59 62 1 0 0 
SMALL
NO_CHARGES


@<TRIPOS>ATOM
  1 C1       8.5490    -1.3100    24.9000 C.2   1 LIG   0.0000 
  2 C4       8.3390    -2.1060    23.8940 C.2   1 LIG   0.0000 
  3 C5       9.5040    -2.5690    23.0350 C.3   1 LIG   0.0000 
  4 C8       9.3710    -1.9810    21.6400 C.3   1 LIG   0.0000 
  5 N11      9.6820    -0.5430    21.6820 N.pl3 1 LIG   0.0000 
  6 C12      8.8930     0.4470    21.1830 C.2   1 LIG   0.0000 
  7 C13      7.5520     0.2550    20.4930 C.3   1 LIG   0.0000 
  8 C14      7.7470    -0.0250    19.0080 C.3   1 LIG   0.0000 
  9 C17      6.3700    -0.2260    18.3880 C.3   1 LIG   0.0000 
 10 C20      5.4800     1.0020    18.5270 C.3   1 LIG   0.0000 
 11 N23      5.5080     1.5450    19.8960 N.am  1 LIG   0.0000 
 12 C24      4.3390     2.1270    20.4000 C.2   1 LIG   0.0000 
 13 O25      3.3520     2.1770    19.7200 O.2   1 LIG   0.0000 
 14 C26      4.3200     2.6950    21.8100 C.3   1 LIG   0.0000 
 15 CL29     5.7540     3.7210    22.0550 Cl    1 LIG   0.0000 
 16 C30      6.7070     1.4950    20.7500 C.3   1 LIG   0.0000 
 17 N33      9.4850     1.5980    21.3950 N.2   1 LIG   0.0000 
 18 C34     10.6680     1.3660    22.0370 C.ar  1 LIG   0.0000 
 19 C35     11.6550     2.2410    22.4790 C.ar  1 LIG   0.0000 
 20 C37     12.7950     1.7670    23.1190 C.ar  1 LIG   0.0000 
 21 C39     12.9390     0.3970    23.3130 C.ar  1 LIG   0.0000 
 22 C41     11.9430    -0.4650    22.8650 C.ar  1 LIG   0.0000 
 23 C43     10.8020     0.0120    22.2260 C.ar  1 LIG   0.0000 
 24 N44      7.0670    -2.5260    23.6080 N.pl3 1 LIG   0.0000 
 25 C46      6.8450    -3.4130    22.5460 C.ar  1 LIG   0.0000 
 26 C47      6.0990    -3.0300    21.4360 C.ar  1 LIG   0.0000 
 27 N49      5.8980    -3.8960    20.4310 N.ar  1 LIG   0.0000 
 28 C50      6.4020    -5.1390    20.4620 C.ar  1 LIG   0.0000 
 29 C52      7.1560    -5.5750    21.5460 C.ar  1 LIG   0.0000 
 30 C54      7.3780    -4.6970    22.6000 C.ar  1 LIG   0.0000 
 31 C55      8.2000    -5.1640    23.7900 C.3   1 LIG   0.0000 
 32 H35     11.5440     3.2240    22.3340 H     1 LIG   0.0000 
 33 H37     13.5000     2.4010    23.4350 H     1 LIG   0.0000 
 34 H39     13.7520     0.0340    23.7700 H     1 LIG   0.0000 
 35 H41     12.0490    -1.4490    23.0050 H     1 LIG   0.0000 
 36 H47      5.7110    -2.1090    21.3880 H     1 LIG   0.0000 
 37 H50      6.2350    -5.7590    19.6950 H     1 LIG   0.0000 
 38 H52      7.5300    -6.5020    21.5670 H     1 LIG   0.0000 
 39 H51      9.5000    -3.5670    22.9780 H     1 LIG   0.0000 
 40 H52     10.3630    -2.2630    23.4460 H     1 LIG   0.0000 
 41 H81     10.0080    -2.4420    21.0220 H     1 LIG   0.0000 
 42 H82      8.4350    -2.1100    21.3120 H     1 LIG   0.0000 
 43 H13      7.0940    -0.5320    20.9050 H     1 LIG   0.0000 
 44 H141     8.2980    -0.8500    18.8870 H     1 LIG   0.0000 
 45 H142     8.2060     0.7500    18.5730 H     1 LIG   0.0000 
 46 H171     6.4840    -0.4300    17.4160 H     1 LIG   0.0000 
 47 H172     5.9240    -0.9980    18.8420 H     1 LIG   0.0000 
 48 H201     5.7990     1.7060    17.8930 H     1 LIG   0.0000 
 49 H202     4.5400     0.7480    18.2980 H     1 LIG   0.0000 
 50 H261     3.4930     3.2430    21.9380 H     1 LIG   0.0000 
 51 H262     4.3300     1.9460    22.4720 H     1 LIG   0.0000 
 52 H301     6.4190     1.4940    21.7080 H     1 LIG   0.0000 
 53 H302     7.2640     2.3060    20.5700 H     1 LIG   0.0000 
 54 H551     8.4920    -6.1090    23.6430 H     1 LIG   0.0000 
 55 H552     9.0050    -4.5780    23.8900 H     1 LIG   0.0000 
 56 H553     7.6460    -5.1110    24.6200 H     1 LIG   0.0000 
 57 H11      9.4780    -1.0030    25.1090 H     1 LIG   0.0000 
 58 H12      7.7830    -1.0050    25.4650 H     1 LIG   0.0000 
 59 H44      6.2970    -2.2010    24.1560 H     1 LIG   0.0000 
@<TRIPOS>BOND
  1   1   2  2   
  2   1  57  1   
  3   1  58  1   
  4   2   3  1   
  5   2  24  1   
  6   3   4  1   
  7   3  39  1   
  8   3  40  1   
  9   4   5  1   
 10   4  41  1   
 11   4  42  1   
 12   5   6  1   
 13   5  23  1   
 14   6   7  1   
 15   6  17  2   
 16   7   8  1   
 17   7  16  1   
 18   7  43  1   
 19   8   9  1   
 20   8  44  1   
 21   8  45  1   
 22   9  10  1   
 23   9  46  1   
 24   9  47  1   
 25  10  11  1   
 26  10  48  1   
 27  10  49  1   
 28  11  12  am  
 29  11  16  1   
 30  12  13  2   
 31  12  14  1   
 32  14  15  1   
 33  14  50  1   
 34  14  51  1   
 35  16  52  1   
 36  16  53  1   
 37  17  18  1   
 38  18  19  ar  
 39  18  23  ar  
 40  19  20  ar  
 41  19  32  1   
 42  20  21  ar  
 43  20  33  1   
 44  21  22  ar  
 45  21  34  1   
 46  22  23  ar  
 47  22  35  1   
 48  24  25  1   
 49  24  59  1   
 50  25  26  ar  
 51  25  30  ar  
 52  26  27  ar  
 53  26  36  1   
 54  27  28  ar  
 55  28  29  ar  
 56  28  37  1   
 57  29  30  ar  
 58  29  38  1   
 59  30  31  1   
 60  31  54  1   
 61  31  55  1   
 62  31  56  1   
@<TRIPOS>SUBSTRUCTURE
  1 LIG   6 GROUP 4 **** **** 0
@<TRIPOS>PROPERTY_DATA
index	|	ligand501
Name	|	PAU-UNI-b6a-1
ChemPlp	|	-96.269
MM-GBSA Nwat=0	|	-33.0757
STDEV0	|	2.6907
MM-GBSA Nwat=30	|	-46.4116
STDEV30	|	6.9086
MM-GBSA Nwat=60	|	-49.1703
STDEV60	|	8.1295
ST.DEV < 10%	|	N
RMSD LIG < 2	|	
DIST < 5	|	
DIST < 3.5	|	N

# MOE 2019.01 (io_trps.svl 2018.10)

@<TRIPOS>MOLECULE
ligand652
48 50 1 0 0 
SMALL
NO_CHARGES


@<TRIPOS>ATOM
  1 N1      11.7820     7.4050    26.4470 N.1   1 LIG   0.0000 
  2 C2      12.1000     6.9190    25.4660 C.1   1 LIG   0.0000 
  3 C3      12.5240     6.2700    24.1580 C.ar  1 LIG   0.0000 
  4 C4      13.3550     6.9660    23.2860 C.ar  1 LIG   0.0000 
  5 C6      13.7380     6.3650    22.0910 C.ar  1 LIG   0.0000 
  6 C8      13.3010     5.0860    21.7630 C.ar  1 LIG   0.0000 
  7 C10     12.4710     4.4080    22.6500 C.ar  1 LIG   0.0000 
  8 C11     11.9840     3.0090    22.3090 C.3   1 LIG   0.0000 
  9 C14     12.6900     1.9960    23.1950 C.3   1 LIG   0.0000 
 10 C17     12.1820     0.6000    22.8740 C.ar  1 LIG   0.0000 
 11 C18     13.0720    -0.4670    22.8000 C.ar  1 LIG   0.0000 
 12 C20     12.5720    -1.7310    22.5030 C.ar  1 LIG   0.0000 
 13 N22     11.2600    -1.9180    22.2950 N.ar  1 LIG   0.0000 
 14 C23     10.3840    -0.9040    22.3620 C.ar  1 LIG   0.0000 
 15 C24      8.8980    -1.1170    22.1240 C.3   1 LIG   0.0000 
 16 C25      8.3600    -0.0920    21.1360 C.3   1 LIG   0.0000 
 17 C28      6.8630    -0.3370    21.0030 C.3   1 LIG   0.0000 
 18 C31      6.5450    -1.7240    20.4610 C.3   1 LIG   0.0000 
 19 N34      7.3290    -2.7720    21.1350 N.am  1 LIG   0.0000 
 20 C35      6.7460    -4.0340    21.3030 C.2   1 LIG   0.0000 
 21 O36      5.6360    -4.2410    20.8990 O.2   1 LIG   0.0000 
 22 C37      7.5210    -5.1420    21.9970 C.3   1 LIG   0.0000 
 23 CL40     6.4390    -6.5230    22.2990 Cl    1 LIG   0.0000 
 24 C41      8.6930    -2.5470    21.6410 C.3   1 LIG   0.0000 
 25 C44     10.8260     0.3820    22.6550 C.ar  1 LIG   0.0000 
 26 C46     12.0760     4.9900    23.8500 C.ar  1 LIG   0.0000 
 27 H4      13.6730     7.8860    23.5150 H     1 LIG   0.0000 
 28 H6      14.3350     6.8600    21.4600 H     1 LIG   0.0000 
 29 H8      13.5800     4.6600    20.9030 H     1 LIG   0.0000 
 30 H46     11.4790     4.4960    24.4810 H     1 LIG   0.0000 
 31 H18     14.0500    -0.3290    22.9560 H     1 LIG   0.0000 
 32 H20     13.1980    -2.5090    22.4440 H     1 LIG   0.0000 
 33 H44     10.1770     1.1420    22.7060 H     1 LIG   0.0000 
 34 H111    12.1850     2.8100    21.3500 H     1 LIG   0.0000 
 35 H112    10.9970     2.9530    22.4610 H     1 LIG   0.0000 
 36 H141    13.6760     2.0390    23.0300 H     1 LIG   0.0000 
 37 H142    12.5040     2.2060    24.1550 H     1 LIG   0.0000 
 38 H24      8.4170    -1.0040    22.9940 H     1 LIG   0.0000 
 39 H251     8.8060    -0.2040    20.2490 H     1 LIG   0.0000 
 40 H252     8.5260     0.8330    21.4780 H     1 LIG   0.0000 
 41 H281     6.4400    -0.2400    21.9040 H     1 LIG   0.0000 
 42 H282     6.4800     0.3460    20.3800 H     1 LIG   0.0000 
 43 H311     5.5720    -1.9090    20.5990 H     1 LIG   0.0000 
 44 H312     6.7520    -1.7440    19.4830 H     1 LIG   0.0000 
 45 H371     8.2800    -5.4340    21.4150 H     1 LIG   0.0000 
 46 H372     7.8800    -4.8040    22.8670 H     1 LIG   0.0000 
 47 H411     9.3450    -2.7340    20.9060 H     1 LIG   0.0000 
 48 H412     8.8620    -3.1720    22.4040 H     1 LIG   0.0000 
@<TRIPOS>BOND
  1   1   2  3   
  2   2   3  1   
  3   3   4  ar  
  4   3  26  ar  
  5   4   5  ar  
  6   4  27  1   
  7   5   6  ar  
  8   5  28  1   
  9   6   7  ar  
 10   6  29  1   
 11   7   8  1   
 12   7  26  ar  
 13   8   9  1   
 14   8  34  1   
 15   8  35  1   
 16   9  10  1   
 17   9  36  1   
 18   9  37  1   
 19  10  11  ar  
 20  10  25  ar  
 21  11  12  ar  
 22  11  31  1   
 23  12  13  ar  
 24  12  32  1   
 25  13  14  ar  
 26  14  15  1   
 27  14  25  ar  
 28  15  16  1   
 29  15  24  1   
 30  15  38  1   
 31  16  17  1   
 32  16  39  1   
 33  16  40  1   
 34  17  18  1   
 35  17  41  1   
 36  17  42  1   
 37  18  19  1   
 38  18  43  1   
 39  18  44  1   
 40  19  20  am  
 41  19  24  1   
 42  20  21  2   
 43  20  22  1   
 44  22  23  1   
 45  22  45  1   
 46  22  46  1   
 47  24  47  1   
 48  24  48  1   
 49  25  33  1   
 50  26  30  1   
@<TRIPOS>SUBSTRUCTURE
  1 LIG  25 GROUP 4 **** **** 0
@<TRIPOS>PROPERTY_DATA
index	|	ligand652
Name	|	WAR-XCH-bdd-19
ChemPlp	|	-98.5081
MM-GBSA Nwat=0	|	-29.9935
STDEV0	|	4.121
MM-GBSA Nwat=30	|	-45.9988
STDEV30	|	6.0871
MM-GBSA Nwat=60	|	-51.912
STDEV60	|	5.2844
ST.DEV < 10%	|	N
RMSD LIG < 2	|	
DIST < 5	|	
DIST < 3.5	|	N

# MOE 2019.01 (io_trps.svl 2018.10)

@<TRIPOS>MOLECULE
ligand019
52 54 1 0 0 
SMALL
NO_CHARGES


@<TRIPOS>ATOM
  1 C1      -0.1320    -9.6590    24.1870 C.2   1 LIG   0.0000 
  2 C4       0.4520    -8.4980    24.1870 C.2   1 LIG   0.0000 
  3 C6       1.9110    -8.3800    24.5970 C.2   1 LIG   0.0000 
  4 O7       2.5020    -9.3460    24.9960 O.2   1 LIG   0.0000 
  5 N8       2.5660    -7.1450    24.5100 N.am  1 LIG   0.0000 
  6 C9       1.8220    -5.9770    24.0140 C.3   1 LIG   0.0000 
  7 C12      2.7440    -5.0320    23.2610 C.3   1 LIG   0.0000 
  8 O15      3.9510    -4.8050    23.9780 O.3   1 LIG   0.0000 
  9 C16      4.7040    -6.0070    24.0670 C.3   1 LIG   0.0000 
 10 C17      6.0620    -5.7490    24.6990 C.ar  1 LIG   0.0000 
 11 C18      6.1130    -5.3780    26.0390 C.ar  1 LIG   0.0000 
 12 C20      7.3440    -5.1360    26.6400 C.ar  1 LIG   0.0000 
 13 F21      7.3980    -4.7810    27.9200 F     1 LIG   0.0000 
 14 C22      8.5180    -5.2660    25.9030 C.ar  1 LIG   0.0000 
 15 F23      9.6890    -5.0320    26.4890 F     1 LIG   0.0000 
 16 C24      8.4740    -5.6360    24.5630 C.ar  1 LIG   0.0000 
 17 C26      7.2400    -5.8760    23.9680 C.ar  1 LIG   0.0000 
 18 C27      7.2120    -6.2800    22.5020 C.3   1 LIG   0.0000 
 19 C30      6.4120    -5.2590    21.7100 C.3   1 LIG   0.0000 
 20 C31      6.4050    -5.6510    20.2410 C.3   1 LIG   0.0000 
 21 N35      7.0250    -3.9320    21.8600 N.pl3 1 LIG   0.0000 
 22 C37      6.6720    -2.8950    20.9890 C.ar  1 LIG   0.0000 
 23 C38      7.4250    -1.7250    21.0220 C.ar  1 LIG   0.0000 
 24 C40      7.0870    -0.6860    20.1620 C.ar  1 LIG   0.0000 
 25 C42      6.0150    -0.8230    19.2880 C.ar  1 LIG   0.0000 
 26 C43      5.6540     0.3210    18.3520 C.1   1 LIG   0.0000 
 27 N44      5.3830     1.1780    17.6500 N.1   1 LIG   0.0000 
 28 C45      5.3020    -2.0180    19.3040 C.ar  1 LIG   0.0000 
 29 N47      5.6400    -3.0110    20.1390 N.ar  1 LIG   0.0000 
 30 C48      3.9780    -7.0450    24.9090 C.3   1 LIG   0.0000 
 31 H18      5.2680    -5.2850    26.5670 H     1 LIG   0.0000 
 32 H24      9.3180    -5.7290    24.0350 H     1 LIG   0.0000 
 33 H38      8.1950    -1.6340    21.6530 H     1 LIG   0.0000 
 34 H40      7.6170     0.1630    20.1730 H     1 LIG   0.0000 
 35 H45      4.5270    -2.1380    18.6840 H     1 LIG   0.0000 
 36 H91      1.4170    -5.4930    24.7900 H     1 LIG   0.0000 
 37 H92      1.0960    -6.2870    23.3990 H     1 LIG   0.0000 
 38 H121     2.9640    -5.4320    22.3710 H     1 LIG   0.0000 
 39 H122     2.2760    -4.1580    23.1270 H     1 LIG   0.0000 
 40 H16      4.8400    -6.3740    23.1470 H     1 LIG   0.0000 
 41 H271     6.7860    -7.1800    22.4130 H     1 LIG   0.0000 
 42 H272     8.1470    -6.3170    22.1490 H     1 LIG   0.0000 
 43 H30      5.4730    -5.2340    22.0530 H     1 LIG   0.0000 
 44 H311     5.9870    -6.5540    20.1390 H     1 LIG   0.0000 
 45 H312     5.8780    -4.9790    19.7200 H     1 LIG   0.0000 
 46 H313     7.3440    -5.6770    19.8980 H     1 LIG   0.0000 
 47 H481     4.4180    -7.9340    24.7850 H     1 LIG   0.0000 
 48 H482     4.0280    -6.7790    25.8720 H     1 LIG   0.0000 
 49 H11     -1.0920    -9.7360    23.9170 H     1 LIG   0.0000 
 50 H12      0.3790   -10.4760    24.4570 H     1 LIG   0.0000 
 51 H4      -0.0590    -7.6810    23.9180 H     1 LIG   0.0000 
 52 H35      7.6950    -3.7700    22.5850 H     1 LIG   0.0000 
@<TRIPOS>BOND
  1   1   2  2   
  2   1  49  1   
  3   1  50  1   
  4   2   3  1   
  5   2  51  1   
  6   3   4  2   
  7   3   5  am  
  8   5   6  1   
  9   5  30  1   
 10   6   7  1   
 11   6  36  1   
 12   6  37  1   
 13   7   8  1   
 14   7  38  1   
 15   7  39  1   
 16   8   9  1   
 17   9  10  1   
 18   9  30  1   
 19   9  40  1   
 20  10  11  ar  
 21  10  17  ar  
 22  11  12  ar  
 23  11  31  1   
 24  12  13  1   
 25  12  14  ar  
 26  14  15  1   
 27  14  16  ar  
 28  16  17  ar  
 29  16  32  1   
 30  17  18  1   
 31  18  19  1   
 32  18  41  1   
 33  18  42  1   
 34  19  20  1   
 35  19  21  1   
 36  19  43  1   
 37  20  44  1   
 38  20  45  1   
 39  20  46  1   
 40  21  22  1   
 41  21  52  1   
 42  22  23  ar  
 43  22  29  ar  
 44  23  24  ar  
 45  23  33  1   
 46  24  25  ar  
 47  24  34  1   
 48  25  26  1   
 49  25  28  ar  
 50  26  27  3   
 51  28  29  ar  
 52  28  35  1   
 53  30  47  1   
 54  30  48  1   
@<TRIPOS>SUBSTRUCTURE
  1 LIG   9 GROUP 4 **** **** 0
@<TRIPOS>PROPERTY_DATA
index	|	ligand019
Name	|	BEN-VAN-77c-11
ChemPlp	|	-95.5807
MM-GBSA Nwat=0	|	-22.5706
STDEV0	|	2.2686
MM-GBSA Nwat=30	|	-45.0259
STDEV30	|	4.6685
MM-GBSA Nwat=60	|	-61.0601
STDEV60	|	5.3636
ST.DEV < 10%	|	N
RMSD LIG < 2	|	
DIST < 5	|	
DIST < 3.5	|	N

# MOE 2019.01 (io_trps.svl 2018.10)

@<TRIPOS>MOLECULE
ligand043
52 56 1 0 0 
SMALL
NO_CHARGES


@<TRIPOS>ATOM
  1 N1      12.8090     7.1190    24.6840 N.3   1 LIG   0.0000 
  2 H2      13.8070     7.0990    24.7480 H     1 LIG   0.0000 
  3 H3      12.5150     8.0140    24.3480 H     1 LIG   0.0000 
  4 C4      12.3570     6.0720    23.7540 C.3   1 LIG   0.0000 
  5 C5      13.2960     5.9140    22.5930 C.3   1 LIG   0.0000 
  6 H6      12.9410     5.6640    21.6930 H     1 LIG   0.0000 
  7 H7      14.0660     6.5430    22.4850 H     1 LIG   0.0000 
  8 C8      13.3010     4.9060    23.7060 C.3   1 LIG   0.0000 
  9 C9      12.5760     3.6350    23.2950 C.ar  1 LIG   0.0000 
 10 C10     11.8220     3.6030    22.1280 C.ar  1 LIG   0.0000 
 11 H11     11.7490     4.4150    21.5490 H     1 LIG   0.0000 
 12 N12     11.1930     2.4680    21.7880 N.ar  1 LIG   0.0000 
 13 C13     11.2590     1.3500    22.5310 C.ar  1 LIG   0.0000 
 14 C14     10.6040     0.1740    22.1700 C.ar  1 LIG   0.0000 
 15 C15      9.7680     0.0870    20.9040 C.3   1 LIG   0.0000 
 16 H16      9.5470     1.0090    20.5850 H     1 LIG   0.0000 
 17 H17     10.2840    -0.3950    20.1960 H     1 LIG   0.0000 
 18 N18      8.5240    -0.6440    21.1870 N.3   1 LIG   0.0000 
 19 C19      7.8660    -0.1250    22.3960 C.3   1 LIG   0.0000 
 20 H20      7.5030     0.7890    22.2140 H     1 LIG   0.0000 
 21 H21      8.5290    -0.0770    23.1430 H     1 LIG   0.0000 
 22 C22      6.7280    -1.0580    22.7820 C.3   1 LIG   0.0000 
 23 H23      7.0460    -1.6850    23.4930 H     1 LIG   0.0000 
 24 H24      5.9640    -0.5160    23.1320 H     1 LIG   0.0000 
 25 N25      6.2770    -1.8350    21.6200 N.am  1 LIG   0.0000 
 26 C26      5.7210    -3.0970    21.8620 C.2   1 LIG   0.0000 
 27 O27      5.3480    -3.7740    20.9440 O.2   1 LIG   0.0000 
 28 C28      5.5890    -3.6080    23.2870 C.3   1 LIG   0.0000 
 29 H29      6.3410    -4.2360    23.4870 H     1 LIG   0.0000 
 30 H30      5.6210    -2.8370    23.9230 H     1 LIG   0.0000 
 31 CL31     4.0380    -4.4630    23.4700 Cl    1 LIG   0.0000 
 32 C32      6.3950    -1.3600    20.2270 C.3   1 LIG   0.0000 
 33 C33      5.2000    -0.5840    19.7530 C.3   1 LIG   0.0000 
 34 H34      5.3200     0.3290    19.3640 H     1 LIG   0.0000 
 35 H35      4.3460    -0.6160    20.2720 H     1 LIG   0.0000 
 36 C36      5.6600    -1.7910    18.9900 C.3   1 LIG   0.0000 
 37 H37      5.1110    -2.6280    19.0000 H     1 LIG   0.0000 
 38 H38      6.0860    -1.6830    18.0920 H     1 LIG   0.0000 
 39 C39      7.6100    -0.4670    20.0490 C.3   1 LIG   0.0000 
 40 H40      8.0820    -0.7130    19.2020 H     1 LIG   0.0000 
 41 H41      7.3170     0.4880    20.0020 H     1 LIG   0.0000 
 42 C42     10.6920    -0.9680    22.9590 C.ar  1 LIG   0.0000 
 43 H43     10.2150    -1.8030    22.6850 H     1 LIG   0.0000 
 44 C44     11.4440    -0.9480    24.1290 C.ar  1 LIG   0.0000 
 45 H45     11.5070    -1.7690    24.6960 H     1 LIG   0.0000 
 46 C46     12.1080     0.2120    24.5110 C.ar  1 LIG   0.0000 
 47 H47     12.6510     0.2340    25.3500 H     1 LIG   0.0000 
 48 C48     12.0060     1.3440    23.7080 C.ar  1 LIG   0.0000 
 49 C49     12.6730     2.5020    24.0950 C.ar  1 LIG   0.0000 
 50 H50     13.2140     2.5180    24.9360 H     1 LIG   0.0000 
 51 H51     11.3770     5.9200    23.6200 H     1 LIG   0.0000 
 52 H52     14.0740     4.8600    24.3390 H     1 LIG   0.0000 
@<TRIPOS>BOND
  1   1   2  1   
  2   1   3  1   
  3   1   4  1   
  4   4   5  1   
  5   4   8  1   
  6   4  51  1   
  7   5   6  1   
  8   5   7  1   
  9   5   8  1   
 10   8   9  1   
 11   8  52  1   
 12   9  10  ar  
 13   9  49  ar  
 14  10  11  1   
 15  10  12  ar  
 16  12  13  ar  
 17  13  14  ar  
 18  13  48  ar  
 19  14  15  1   
 20  14  42  ar  
 21  15  16  1   
 22  15  17  1   
 23  15  18  1   
 24  18  19  1   
 25  18  39  1   
 26  19  20  1   
 27  19  21  1   
 28  19  22  1   
 29  22  23  1   
 30  22  24  1   
 31  22  25  1   
 32  25  26  am  
 33  25  32  1   
 34  26  27  2   
 35  26  28  1   
 36  28  29  1   
 37  28  30  1   
 38  28  31  1   
 39  32  33  1   
 40  32  36  1   
 41  32  39  1   
 42  33  34  1   
 43  33  35  1   
 44  33  36  1   
 45  36  37  1   
 46  36  38  1   
 47  39  40  1   
 48  39  41  1   
 49  42  43  1   
 50  42  44  ar  
 51  44  45  1   
 52  44  46  ar  
 53  46  47  1   
 54  46  48  ar  
 55  48  49  ar  
 56  49  50  1   
@<TRIPOS>SUBSTRUCTURE
  1 LIG  14 GROUP 4 **** **** 0
@<TRIPOS>PROPERTY_DATA
index	|	ligand043
Name	|	BOG-INS-15b-1
ChemPlp	|	-93.4194
MM-GBSA Nwat=0	|	-29.2698
STDEV0	|	2.9458
MM-GBSA Nwat=30	|	-44.8712
STDEV30	|	4.8683
MM-GBSA Nwat=60	|	-51.1678
STDEV60	|	4.6079
ST.DEV < 10%	|	N
RMSD LIG < 2	|	
DIST < 5	|	
DIST < 3.5	|	N

# MOE 2019.01 (io_trps.svl 2018.10)

@<TRIPOS>MOLECULE
ligand547
65 68 1 0 0 
SMALL
NO_CHARGES


@<TRIPOS>ATOM
  1 C1       5.8010    -5.6310    21.7110 C.2   1 LIG   0.0000 
  2 H2       5.8560    -6.3990    22.3500 H     1 LIG   0.0000 
  3 H3       5.2240    -5.6990    20.8970 H     1 LIG   0.0000 
  4 C4       6.4770    -4.5450    21.9400 C.2   1 LIG   0.0000 
  5 H5       7.0540    -4.4770    22.7550 H     1 LIG   0.0000 
  6 C6       6.3930    -3.3780    20.9700 C.2   1 LIG   0.0000 
  7 O7       5.6110    -3.4100    20.0600 O.2   1 LIG   0.0000 
  8 N8       7.2260    -2.2660    21.1380 N.am  1 LIG   0.0000 
  9 C9       8.1770    -2.2480    22.2610 C.3   1 LIG   0.0000 
 10 H10      9.0500    -2.6270    21.9540 H     1 LIG   0.0000 
 11 H11      7.8130    -2.8100    23.0040 H     1 LIG   0.0000 
 12 C12      8.4040    -0.8340    22.7760 C.3   1 LIG   0.0000 
 13 H13      7.6030    -0.5470    23.3010 H     1 LIG   0.0000 
 14 H14      9.2100    -0.8310    23.3680 H     1 LIG   0.0000 
 15 N15      8.6180     0.1160    21.6740 N.3   1 LIG   0.0000 
 16 C16      8.7900     1.4420    22.2810 C.3   1 LIG   0.0000 
 17 H17      8.2330     1.5040    23.1090 H     1 LIG   0.0000 
 18 H18      8.5020     2.1460    21.6320 H     1 LIG   0.0000 
 19 C19     10.2530     1.6500    22.6380 C.ar  1 LIG   0.0000 
 20 C20     11.0400     0.5380    22.3620 C.ar  1 LIG   0.0000 
 21 H21     10.6390    -0.2900    21.9690 H     1 LIG   0.0000 
 22 C22     12.3980     0.6090    22.6470 C.ar  1 LIG   0.0000 
 23 CL23    13.4040    -0.8160    22.2920 Cl    1 LIG   0.0000 
 24 C24     12.9790     1.7480    23.1930 C.ar  1 LIG   0.0000 
 25 H25     13.9590     1.7770    23.3900 H     1 LIG   0.0000 
 26 C26     12.1680     2.8460    23.4600 C.ar  1 LIG   0.0000 
 27 C27     12.7690     3.9740    24.0060 C.ar  1 LIG   0.0000 
 28 H28     13.7520     3.9740    24.1900 H     1 LIG   0.0000 
 29 C29     12.0120     5.1040    24.2970 C.ar  1 LIG   0.0000 
 30 H30     12.4510     5.9130    24.6900 H     1 LIG   0.0000 
 31 C31     10.6450     5.1090    24.0430 C.ar  1 LIG   0.0000 
 32 H32     10.0920     5.9170    24.2480 H     1 LIG   0.0000 
 33 C33     10.0610     3.9710    23.4970 C.ar  1 LIG   0.0000 
 34 O34      8.7320     4.0950    23.2920 O.3   1 LIG   0.0000 
 35 C35      8.1960     5.3270    22.8320 C.3   1 LIG   0.0000 
 36 H36      8.5960     5.5530    21.9440 H     1 LIG   0.0000 
 37 H37      8.4110     6.0500    23.4890 H     1 LIG   0.0000 
 38 C38      6.6880     5.2020    22.6910 C.3   1 LIG   0.0000 
 39 H39      6.4740     4.5660    21.9500 H     1 LIG   0.0000 
 40 H40      6.3010     4.8590    23.5470 H     1 LIG   0.0000 
 41 N41      6.1120     6.5250    22.3860 N.3   1 LIG   0.0000 
 42 C42      6.6820     7.0600    21.1410 C.3   1 LIG   0.0000 
 43 H43      6.4590     6.4440    20.3850 H     1 LIG   0.0000 
 44 H44      7.6750     7.1260    21.2350 H     1 LIG   0.0000 
 45 C45      6.1140     8.4390    20.8460 C.3   1 LIG   0.0000 
 46 H46      6.3790     9.0670    21.5780 H     1 LIG   0.0000 
 47 H47      6.4810     8.7670    19.9760 H     1 LIG   0.0000 
 48 N48      4.6470     8.3860    20.7620 N.3   1 LIG   0.0000 
 49 C49      4.0700     9.7020    20.4510 C.3   1 LIG   0.0000 
 50 H50      3.0740     9.6260    20.4020 H     1 LIG   0.0000 
 51 H51      4.3210    10.3530    21.1670 H     1 LIG   0.0000 
 52 H52      4.4240    10.0210    19.5710 H     1 LIG   0.0000 
 53 C53      4.0740     7.8450    22.0040 C.3   1 LIG   0.0000 
 54 H54      3.0810     7.7760    21.9060 H     1 LIG   0.0000 
 55 H55      4.2920     8.4590    22.7620 H     1 LIG   0.0000 
 56 C56      4.6450     6.4660    22.2970 C.3   1 LIG   0.0000 
 57 H57      4.2760     6.1350    23.1660 H     1 LIG   0.0000 
 58 H58      4.3850     5.8390    21.5630 H     1 LIG   0.0000 
 59 C59     10.8000     2.8200    23.1930 C.ar  1 LIG   0.0000 
 60 C60      7.4010     0.1810    20.8490 C.3   1 LIG   0.0000 
 61 H61      7.5240     0.8770    20.1420 H     1 LIG   0.0000 
 62 H62      6.6270     0.4300    21.4320 H     1 LIG   0.0000 
 63 C63      7.1070    -1.1540    20.1810 C.3   1 LIG   0.0000 
 64 H64      6.1760    -1.1380    19.8150 H     1 LIG   0.0000 
 65 H65      7.7560    -1.2960    19.4340 H     1 LIG   0.0000 
@<TRIPOS>BOND
  1   1   2  1   
  2   1   3  1   
  3   1   4  2   
  4   4   5  1   
  5   4   6  1   
  6   6   7  2   
  7   6   8  am  
  8   8   9  1   
  9   8  63  1   
 10   9  10  1   
 11   9  11  1   
 12   9  12  1   
 13  12  13  1   
 14  12  14  1   
 15  12  15  1   
 16  15  16  1   
 17  15  60  1   
 18  16  17  1   
 19  16  18  1   
 20  16  19  1   
 21  19  20  ar  
 22  19  59  ar  
 23  20  21  1   
 24  20  22  ar  
 25  22  23  1   
 26  22  24  ar  
 27  24  25  1   
 28  24  26  ar  
 29  26  27  ar  
 30  26  59  ar  
 31  27  28  1   
 32  27  29  ar  
 33  29  30  1   
 34  29  31  ar  
 35  31  32  1   
 36  31  33  ar  
 37  33  34  1   
 38  33  59  ar  
 39  34  35  1   
 40  35  36  1   
 41  35  37  1   
 42  35  38  1   
 43  38  39  1   
 44  38  40  1   
 45  38  41  1   
 46  41  42  1   
 47  41  56  1   
 48  42  43  1   
 49  42  44  1   
 50  42  45  1   
 51  45  46  1   
 52  45  47  1   
 53  45  48  1   
 54  48  49  1   
 55  48  53  1   
 56  49  50  1   
 57  49  51  1   
 58  49  52  1   
 59  53  54  1   
 60  53  55  1   
 61  53  56  1   
 62  56  57  1   
 63  56  58  1   
 64  60  61  1   
 65  60  62  1   
 66  60  63  1   
 67  63  64  1   
 68  63  65  1   
@<TRIPOS>SUBSTRUCTURE
  1 LIG  16 GROUP 4 **** **** 0
@<TRIPOS>PROPERTY_DATA
index	|	ligand547
Name	|	SEA-TRI-98d-1
ChemPlp	|	-97.7651
MM-GBSA Nwat=0	|	-32.6881
STDEV0	|	4.3285
MM-GBSA Nwat=30	|	-44.5497
STDEV30	|	5.3115
MM-GBSA Nwat=60	|	-55.9783
STDEV60	|	5.8922
ST.DEV < 10%	|	N
RMSD LIG < 2	|	
DIST < 5	|	
DIST < 3.5	|	N

# MOE 2019.01 (io_trps.svl 2018.10)

@<TRIPOS>MOLECULE
ligand053
52 55 1 0 0 
SMALL
NO_CHARGES


@<TRIPOS>ATOM
  1 C1       8.1260    -1.5720    20.8440 C.3   1 LIG   0.0000 
  2 N5       7.6290    -2.6850    21.6680 N.am  1 LIG   0.0000 
  3 C6       6.4430    -3.3460    21.3570 C.2   1 LIG   0.0000 
  4 O7       5.7080    -3.1140    20.4100 O.2   1 LIG   0.0000 
  5 C8       6.2460    -4.4100    22.4090 C.3   1 LIG   0.0000 
  6 C9       5.0030    -4.0230    23.1970 C.3   1 LIG   0.0000 
  7 C12      4.5980    -5.1750    24.1020 C.ar  1 LIG   0.0000 
  8 C13      3.8710    -6.2340    23.5710 C.ar  1 LIG   0.0000 
  9 C15      3.5070    -7.2820    24.4100 C.ar  1 LIG   0.0000 
 10 O16      2.8000    -8.3180    23.9130 O.3   1 LIG   0.0000 
 11 C18      3.8580    -7.2810    25.7560 C.ar  1 LIG   0.0000 
 12 C20      4.5860    -6.2090    26.2610 C.ar  1 LIG   0.0000 
 13 F21      4.9270    -6.1970    27.5470 F     1 LIG   0.0000 
 14 C22      4.9630    -5.1490    25.4440 C.ar  1 LIG   0.0000 
 15 C24      7.4500    -4.2420    23.3110 C.ar  1 LIG   0.0000 
 16 C25      7.8250    -4.9340    24.4570 C.ar  1 LIG   0.0000 
 17 C27      9.0040    -4.5680    25.0970 C.ar  1 LIG   0.0000 
 18 F28      9.3880    -5.2040    26.1940 F     1 LIG   0.0000 
 19 C29      9.8090    -3.5420    24.6230 C.ar  1 LIG   0.0000 
 20 C31      9.4090    -2.8690    23.4760 C.ar  1 LIG   0.0000 
 21 C32     10.3360    -1.7580    23.0090 C.3   1 LIG   0.0000 
 22 C33     10.3420    -0.6680    24.0700 C.3   1 LIG   0.0000 
 23 N36     11.4130     0.3060    23.8100 N.am  1 LIG   0.0000 
 24 C37     11.2210     1.6500    24.1560 C.2   1 LIG   0.0000 
 25 O38     10.1900     1.9980    24.6620 O.2   1 LIG   0.0000 
 26 C39     12.3200     2.6670    23.8930 C.3   1 LIG   0.0000 
 27 CL42    11.7630     4.2830    24.3880 Cl    1 LIG   0.0000 
 28 C43     12.6840    -0.0950    23.1880 C.3   1 LIG   0.0000 
 29 C46     12.4680    -1.2430    22.2150 C.3   1 LIG   0.0000 
 30 O49     11.6470    -2.2560    22.7820 O.3   1 LIG   0.0000 
 31 C50      8.2260    -3.2160    22.8200 C.ar  1 LIG   0.0000 
 32 H13      3.6140    -6.2430    22.6050 H     1 LIG   0.0000 
 33 H18      3.5910    -8.0390    26.3520 H     1 LIG   0.0000 
 34 H22      5.4860    -4.3820    25.8140 H     1 LIG   0.0000 
 35 H25      7.2600    -5.6780    24.8130 H     1 LIG   0.0000 
 36 H29     10.6550    -3.2930    25.0950 H     1 LIG   0.0000 
 37 H11      7.4940    -1.4120    20.0850 H     1 LIG   0.0000 
 38 H12      8.1910    -0.7460    21.4040 H     1 LIG   0.0000 
 39 H13      9.0290    -1.8020    20.4830 H     1 LIG   0.0000 
 40 H8       6.1830    -5.3280    22.0190 H     1 LIG   0.0000 
 41 H91      5.1990    -3.2150    23.7530 H     1 LIG   0.0000 
 42 H92      4.2570    -3.8180    22.5640 H     1 LIG   0.0000 
 43 H32      9.9810    -1.3770    22.1560 H     1 LIG   0.0000 
 44 H331     9.4600    -0.1970    24.0610 H     1 LIG   0.0000 
 45 H332    10.4890    -1.0840    24.9670 H     1 LIG   0.0000 
 46 H391    13.1350     2.4200    24.4160 H     1 LIG   0.0000 
 47 H392    12.5400     2.6740    22.9170 H     1 LIG   0.0000 
 48 H431    13.3210    -0.3870    23.9020 H     1 LIG   0.0000 
 49 H432    13.0700     0.6850    22.6960 H     1 LIG   0.0000 
 50 H461    12.0260    -0.8910    21.3900 H     1 LIG   0.0000 
 51 H462    13.3540    -1.6380    21.9750 H     1 LIG   0.0000 
 52 H16      2.7110    -8.4340    22.9230 H     1 LIG   0.0000 
@<TRIPOS>BOND
  1   1   2  1   
  2   1  37  1   
  3   1  38  1   
  4   1  39  1   
  5   2   3  am  
  6   2  31  1   
  7   3   4  2   
  8   3   5  1   
  9   5   6  1   
 10   5  15  1   
 11   5  40  1   
 12   6   7  1   
 13   6  41  1   
 14   6  42  1   
 15   7   8  ar  
 16   7  14  ar  
 17   8   9  ar  
 18   8  32  1   
 19   9  10  1   
 20   9  11  ar  
 21  10  52  1   
 22  11  12  ar  
 23  11  33  1   
 24  12  13  1   
 25  12  14  ar  
 26  14  34  1   
 27  15  16  ar  
 28  15  31  ar  
 29  16  17  ar  
 30  16  35  1   
 31  17  18  1   
 32  17  19  ar  
 33  19  20  ar  
 34  19  36  1   
 35  20  21  1   
 36  20  31  ar  
 37  21  22  1   
 38  21  30  1   
 39  21  43  1   
 40  22  23  1   
 41  22  44  1   
 42  22  45  1   
 43  23  24  am  
 44  23  28  1   
 45  24  25  2   
 46  24  26  1   
 47  26  27  1   
 48  26  46  1   
 49  26  47  1   
 50  28  29  1   
 51  28  48  1   
 52  28  49  1   
 53  29  30  1   
 54  29  50  1   
 55  29  51  1   
@<TRIPOS>SUBSTRUCTURE
  1 LIG  31 GROUP 4 **** **** 0
@<TRIPOS>PROPERTY_DATA
index	|	ligand053
Name	|	BOG-INS-da5-1
ChemPlp	|	-102.876
MM-GBSA Nwat=0	|	-22.7402
STDEV0	|	3.0676
MM-GBSA Nwat=30	|	-44.4906
STDEV30	|	4.9641
MM-GBSA Nwat=60	|	-53.2902
STDEV60	|	5.0088
ST.DEV < 10%	|	N
RMSD LIG < 2	|	
DIST < 5	|	
DIST < 3.5	|	N

# MOE 2019.01 (io_trps.svl 2018.10)

@<TRIPOS>MOLECULE
ligand118
51 54 1 0 0 
SMALL
NO_CHARGES


@<TRIPOS>ATOM
  1 C1       7.4070    -0.3480    19.4070 C.3   1 LIG   0.0000 
  2 C5       6.9090     0.4850    20.5770 C.ar  1 LIG   0.0000 
  3 C6       5.9630     1.4820    20.3680 C.ar  1 LIG   0.0000 
  4 C8       5.5070     2.2450    21.4390 C.ar  1 LIG   0.0000 
  5 C10      5.9980     2.0090    22.7190 C.ar  1 LIG   0.0000 
  6 C12      6.9450     1.0120    22.9280 C.ar  1 LIG   0.0000 
  7 C14      7.4010     0.2490    21.8570 C.ar  1 LIG   0.0000 
  8 C15      8.4360    -0.8320    22.1250 C.3   1 LIG   0.0000 
  9 C16      9.8510    -0.2990    22.2780 C.ar  1 LIG   0.0000 
 10 C17     10.2060     0.9640    21.8160 C.ar  1 LIG   0.0000 
 11 C19     11.4990     1.4470    21.9680 C.ar  1 LIG   0.0000 
 12 C21     12.4340     0.6330    22.5970 C.ar  1 LIG   0.0000 
 13 C23     12.0930    -0.6320    23.0620 C.ar  1 LIG   0.0000 
 14 C25     10.7950    -1.1070    22.9020 C.ar  1 LIG   0.0000 
 15 C26     10.4290    -2.4910    23.4120 C.3   1 LIG   0.0000 
 16 N29      9.0520    -2.4490    23.9250 N.am  1 LIG   0.0000 
 17 C30      8.6840    -3.4180    24.8660 C.2   1 LIG   0.0000 
 18 O31      7.5710    -3.4260    25.3150 O.2   1 LIG   0.0000 
 19 C32      9.6940    -4.4590    25.3190 C.3   1 LIG   0.0000 
 20 CL35     9.5200    -4.7320    27.0690 Cl    1 LIG   0.0000 
 21 C36      8.0840    -1.4310    23.4750 C.3   1 LIG   0.0000 
 22 C37      6.6950    -2.0510    23.4540 C.3   1 LIG   0.0000 
 23 C40      6.5960    -3.0340    22.2980 C.ar  1 LIG   0.0000 
 24 C41      7.2490    -4.2600    22.3680 C.ar  1 LIG   0.0000 
 25 C43      7.1560    -5.1570    21.3090 C.ar  1 LIG   0.0000 
 26 C45      6.4020    -4.8000    20.1950 C.ar  1 LIG   0.0000 
 27 N47      5.7800    -3.6140    20.1440 N.ar  1 LIG   0.0000 
 28 C48      5.8590    -2.7380    21.1570 C.ar  1 LIG   0.0000 
 29 H6       5.6090     1.6510    19.4480 H     1 LIG   0.0000 
 30 H8       4.8270     2.9620    21.2890 H     1 LIG   0.0000 
 31 H10      5.6700     2.5560    23.4890 H     1 LIG   0.0000 
 32 H12      7.2980     0.8420    23.8480 H     1 LIG   0.0000 
 33 H17      9.5190     1.5340    21.3670 H     1 LIG   0.0000 
 34 H19     11.7510     2.3550    21.6330 H     1 LIG   0.0000 
 35 H21     13.3700     0.9640    22.7180 H     1 LIG   0.0000 
 36 H23     12.7810    -1.2020    23.5120 H     1 LIG   0.0000 
 37 H41      7.7850    -4.4960    23.1790 H     1 LIG   0.0000 
 38 H43      7.6210    -6.0410    21.3480 H     1 LIG   0.0000 
 39 H45      6.3250    -5.4340    19.4260 H     1 LIG   0.0000 
 40 H48      5.3840    -1.8610    21.0900 H     1 LIG   0.0000 
 41 H11      6.9530    -0.0480    18.5670 H     1 LIG   0.0000 
 42 H12      8.3960    -0.2320    19.3110 H     1 LIG   0.0000 
 43 H13      7.1990    -1.3120    19.5720 H     1 LIG   0.0000 
 44 H15      8.4020    -1.5320    21.4120 H     1 LIG   0.0000 
 45 H261    10.4910    -3.1530    22.6640 H     1 LIG   0.0000 
 46 H262    11.0550    -2.7580    24.1450 H     1 LIG   0.0000 
 47 H321     9.5320    -5.3160    24.8300 H     1 LIG   0.0000 
 48 H322    10.6190    -4.1330    25.1230 H     1 LIG   0.0000 
 49 H36      8.0810    -0.6920    24.1480 H     1 LIG   0.0000 
 50 H371     6.5320    -2.5320    24.3160 H     1 LIG   0.0000 
 51 H372     6.0110    -1.3320    23.3390 H     1 LIG   0.0000 
@<TRIPOS>BOND
  1   1   2  1   
  2   1  41  1   
  3   1  42  1   
  4   1  43  1   
  5   2   3  ar  
  6   2   7  ar  
  7   3   4  ar  
  8   3  29  1   
  9   4   5  ar  
 10   4  30  1   
 11   5   6  ar  
 12   5  31  1   
 13   6   7  ar  
 14   6  32  1   
 15   7   8  1   
 16   8   9  1   
 17   8  21  1   
 18   8  44  1   
 19   9  10  ar  
 20   9  14  ar  
 21  10  11  ar  
 22  10  33  1   
 23  11  12  ar  
 24  11  34  1   
 25  12  13  ar  
 26  12  35  1   
 27  13  14  ar  
 28  13  36  1   
 29  14  15  1   
 30  15  16  1   
 31  15  45  1   
 32  15  46  1   
 33  16  17  am  
 34  16  21  1   
 35  17  18  2   
 36  17  19  1   
 37  19  20  1   
 38  19  47  1   
 39  19  48  1   
 40  21  22  1   
 41  21  49  1   
 42  22  23  1   
 43  22  50  1   
 44  22  51  1   
 45  23  24  ar  
 46  23  28  ar  
 47  24  25  ar  
 48  24  37  1   
 49  25  26  ar  
 50  25  38  1   
 51  26  27  ar  
 52  26  39  1   
 53  27  28  ar  
 54  28  40  1   
@<TRIPOS>SUBSTRUCTURE
  1 LIG   8 GROUP 4 **** **** 0
@<TRIPOS>PROPERTY_DATA
index	|	ligand118
Name	|	DAV-CRI-1c7-5
ChemPlp	|	-91.4038
MM-GBSA Nwat=0	|	-26.7337
STDEV0	|	3.5926
MM-GBSA Nwat=30	|	-43.8609
STDEV30	|	5.0231
MM-GBSA Nwat=60	|	-46.0315
STDEV60	|	4.7604
ST.DEV < 10%	|	N
RMSD LIG < 2	|	
DIST < 5	|	
DIST < 3.5	|	N

# MOE 2019.01 (io_trps.svl 2018.10)

@<TRIPOS>MOLECULE
ligand001
76 79 1 0 0 
SMALL
USER_CHARGES


@<TRIPOS>ATOM
  1 C1       6.7000    -6.7590    22.2950 C.2   1 LIG   0.0000 
  2 C4       7.1340    -5.5440    22.4570 C.2   1 LIG   0.0000 
  3 C6       6.4150    -4.3850    21.7870 C.2   1 LIG   0.0000 
  4 O7       5.5080    -4.5970    21.0310 O.2   1 LIG   0.0000 
  5 N8       6.8120    -3.0680    22.0520 N.am  1 LIG   0.0000 
  6 C9       6.4000    -1.7300    21.6320 C.3   1 LIG   0.0000 
  7 C12      6.9200    -1.2640    22.9750 C.3   1 LIG   0.0000 
  8 C14      7.6490     0.0660    22.8530 C.3   1 LIG   0.0000 
  9 C17      8.4660     0.3130    24.1110 C.3   1 LIG   0.0000 
 10 N20      9.3350     1.4810    23.9090 N.am  1 LIG   0.0000 
 11 C21      8.8100     2.7450    23.9750 C.2   1 LIG   0.0000 
 12 O22      7.6410     2.8980    24.1980 O.2   1 LIG   0.0000 
 13 N23      9.6200     3.8340    23.7870 N.am  1 LIG   0.0000 
 14 C25      9.0840     5.1260    23.8540 C.ar  1 LIG   0.0000 
 15 C26      9.5470     6.0550    24.7800 C.ar  1 LIG   0.0000 
 16 C27     10.6590     5.6600    25.7380 C.3   1 LIG   0.0000 
 17 N31      9.0230     7.2880    24.8320 N.ar  1 LIG   0.0000 
 18 C32      8.0420     7.6670    24.0000 C.ar  1 LIG   0.0000 
 19 C34      7.5340     6.7850    23.0520 C.ar  1 LIG   0.0000 
 20 C35      6.4210     7.2320    22.1180 C.3   1 LIG   0.0000 
 21 C39      8.0660     5.5020    22.9850 C.ar  1 LIG   0.0000 
 22 C40      7.5350     4.5110    21.9610 C.3   1 LIG   0.0000 
 23 C43      6.0930     4.1620    22.2940 C.3   1 LIG   0.0000 
 24 N46      5.5300     3.3270    21.2200 N.4   1 LIG   1.0000 
 25 C47      6.3130     2.0990    21.0200 C.3   1 LIG   0.0000 
 26 C50      5.7060     1.2640    19.9030 C.3   1 LIG   0.0000 
 27 O53      4.3470     0.9660    20.1880 O.3   1 LIG   0.0000 
 28 C54      3.5690     2.1410    20.3720 C.3   1 LIG   0.0000 
 29 C57      4.1260     2.9910    21.5040 C.3   1 LIG   0.0000 
 30 C60     10.7000     1.3020    23.6490 C.ar  1 LIG   0.0000 
 31 C61     11.1210     0.0840    23.1270 C.ar  1 LIG   0.0000 
 32 C63     12.4740    -0.1040    22.8650 C.ar  1 LIG   0.0000 
 33 C64     12.9620    -1.4260    22.2950 C.3   1 LIG   0.0000 
 34 C68     13.3740     0.9230    23.1280 C.ar  1 LIG   0.0000 
 35 C70     12.8920     2.1190    23.6500 C.ar  1 LIG   0.0000 
 36 N72     11.5840     2.2810    23.8960 N.ar  1 LIG   0.0000 
 37 C73      7.8660    -2.4440    22.8510 C.3   1 LIG   0.0000 
 38 H32      7.6710     8.5940    24.0630 H     1 LIG   0.0000 
 39 H61     10.4620    -0.6450    22.9430 H     1 LIG   0.0000 
 40 H68     14.3500     0.8040    22.9460 H     1 LIG   0.0000 
 41 H70     13.5280     2.8660    23.8430 H     1 LIG   0.0000 
 42 H91      5.4160    -1.6140    21.4970 H     1 LIG   0.0000 
 43 H92      6.8900    -1.3660    20.8400 H     1 LIG   0.0000 
 44 H12      6.2650    -1.3220    23.7280 H     1 LIG   0.0000 
 45 H141     6.9820     0.8020    22.7400 H     1 LIG   0.0000 
 46 H142     8.2570     0.0420    22.0600 H     1 LIG   0.0000 
 47 H171     7.8510     0.4840    24.8800 H     1 LIG   0.0000 
 48 H172     9.0280    -0.4910    24.3060 H     1 LIG   0.0000 
 49 H271    10.9300     4.7130    25.5630 H     1 LIG   0.0000 
 50 H272    11.4460     6.2620    25.6020 H     1 LIG   0.0000 
 51 H273    10.3340     5.7440    26.6800 H     1 LIG   0.0000 
 52 H351     6.1760     8.1800    22.3210 H     1 LIG   0.0000 
 53 H352     6.7330     7.1640    21.1710 H     1 LIG   0.0000 
 54 H353     5.6210     6.6460    22.2480 H     1 LIG   0.0000 
 55 H401     8.0920     3.6800    21.9810 H     1 LIG   0.0000 
 56 H402     7.5770     4.9190    21.0490 H     1 LIG   0.0000 
 57 H431     6.0630     3.6590    23.1580 H     1 LIG   0.0000 
 58 H432     5.5580     5.0020    22.3790 H     1 LIG   0.0000 
 59 H46      5.5570     3.8550    20.3700 H     1 LIG   0.0000 
 60 H471     6.3140     1.5660    21.8660 H     1 LIG   0.0000 
 61 H472     7.2520     2.3420    20.7780 H     1 LIG   0.0000 
 62 H501     5.7580     1.7750    19.0450 H     1 LIG   0.0000 
 63 H502     6.2190     0.4100    19.8140 H     1 LIG   0.0000 
 64 H541     2.6290     1.8800    20.5920 H     1 LIG   0.0000 
 65 H542     3.5780     2.6750    19.5270 H     1 LIG   0.0000 
 66 H571     3.5910     3.8320    21.5830 H     1 LIG   0.0000 
 67 H572     4.0730     2.4800    22.3620 H     1 LIG   0.0000 
 68 H641    13.9540    -1.3890    22.1690 H     1 LIG   0.0000 
 69 H642    12.7340    -2.1660    22.9280 H     1 LIG   0.0000 
 70 H643    12.5200    -1.5920    21.4140 H     1 LIG   0.0000 
 71 H731     8.7150    -2.2560    22.3570 H     1 LIG   0.0000 
 72 H732     8.0760    -2.9100    23.7110 H     1 LIG   0.0000 
 73 H11      7.1720    -7.5220    22.7360 H     1 LIG   0.0000 
 74 H12      5.8930    -6.9300    21.7300 H     1 LIG   0.0000 
 75 H4       7.9410    -5.3730    23.0220 H     1 LIG   0.0000 
 76 H23     10.5950     3.7060    23.6010 H     1 LIG   0.0000 
@<TRIPOS>BOND
  1   1   2  2   
  2   1  73  1   
  3   1  74  1   
  4   2   3  1   
  5   2  75  1   
  6   3   4  2   
  7   3   5  am  
  8   5   6  1   
  9   5  37  1   
 10   6   7  1   
 11   6  42  1   
 12   6  43  1   
 13   7   8  1   
 14   7  37  1   
 15   7  44  1   
 16   8   9  1   
 17   8  45  1   
 18   8  46  1   
 19   9  10  1   
 20   9  47  1   
 21   9  48  1   
 22  10  11  am  
 23  10  30  1   
 24  11  12  2   
 25  11  13  am  
 26  13  14  1   
 27  13  76  1   
 28  14  15  ar  
 29  14  21  ar  
 30  15  16  1   
 31  15  17  ar  
 32  16  49  1   
 33  16  50  1   
 34  16  51  1   
 35  17  18  ar  
 36  18  19  ar  
 37  18  38  1   
 38  19  20  1   
 39  19  21  ar  
 40  20  52  1   
 41  20  53  1   
 42  20  54  1   
 43  21  22  1   
 44  22  23  1   
 45  22  55  1   
 46  22  56  1   
 47  23  24  1   
 48  23  57  1   
 49  23  58  1   
 50  24  25  1   
 51  24  29  1   
 52  24  59  1   
 53  25  26  1   
 54  25  60  1   
 55  25  61  1   
 56  26  27  1   
 57  26  62  1   
 58  26  63  1   
 59  27  28  1   
 60  28  29  1   
 61  28  64  1   
 62  28  65  1   
 63  29  66  1   
 64  29  67  1   
 65  30  31  ar  
 66  30  36  ar  
 67  31  32  ar  
 68  31  39  1   
 69  32  33  1   
 70  32  34  ar  
 71  33  68  1   
 72  33  69  1   
 73  33  70  1   
 74  34  35  ar  
 75  34  40  1   
 76  35  36  ar  
 77  35  41  1   
 78  37  71  1   
 79  37  72  1   
@<TRIPOS>SUBSTRUCTURE
  1 LIG   8 GROUP 4 **** **** 0
@<TRIPOS>PROPERTY_DATA
index	|	ligand001
Name	|	AGN-NEW-5f0-1
ChemPlp	|	-94.4667
MM-GBSA Nwat=0	|	-19.4837
STDEV0	|	3.4425
MM-GBSA Nwat=30	|	-43.5732
STDEV30	|	9.0207
MM-GBSA Nwat=60	|	-68.8947
STDEV60	|	7.0546
ST.DEV < 10%	|	N
RMSD LIG < 2	|	
DIST < 5	|	
DIST < 3.5	|	N

# MOE 2019.01 (io_trps.svl 2018.10)

@<TRIPOS>MOLECULE
ligand538
48 50 1 0 0 
SMALL
NO_CHARGES


@<TRIPOS>ATOM
  1 O1       8.4260    -5.0160    27.8180 O.2   1 LIG   0.0000 
  2 C2       7.3370    -5.0170    27.3140 C.2   1 LIG   0.0000 
  3 C3       6.1580    -5.6310    28.0520 C.3   1 LIG   0.0000 
  4 H4       5.4500    -4.9380    28.1850 H     1 LIG   0.0000 
  5 H5       5.7870    -6.3890    27.5150 H     1 LIG   0.0000 
  6 CL6      6.7000    -6.2360    29.6360 Cl    1 LIG   0.0000 
  7 N7       7.1510    -4.4510    26.0480 N.am  1 LIG   0.0000 
  8 C8       5.8080    -4.4680    25.4460 C.3   1 LIG   0.0000 
  9 H9       5.3330    -3.6220    25.6890 H     1 LIG   0.0000 
 10 H10      5.3010    -5.2510    25.8070 H     1 LIG   0.0000 
 11 C11      5.8720    -4.5790    23.9300 C.3   1 LIG   0.0000 
 12 H12      6.1070    -5.5200    23.6850 H     1 LIG   0.0000 
 13 H13      4.9750    -4.3510    23.5510 H     1 LIG   0.0000 
 14 N14      6.8770    -3.6740    23.3480 N.am  1 LIG   0.0000 
 15 S15      6.8520    -3.9160    21.6050 S.o2  1 LIG   0.0000 
 16 O16      7.9680    -4.7390    21.2190 O.2   1 LIG   0.0000 
 17 O17      5.6230    -4.5660    21.2280 O.2   1 LIG   0.0000 
 18 C18      6.9630    -2.3730    20.8030 C.2   1 LIG   0.0000 
 19 C19      7.9240    -1.4200    20.9800 C.2   1 LIG   0.0000 
 20 H20      8.6830    -1.5400    21.6200 H     1 LIG   0.0000 
 21 C21      7.7720    -0.2440    20.1900 C.2   1 LIG   0.0000 
 22 H22      8.4100     0.5260    20.2210 H     1 LIG   0.0000 
 23 C23      6.6680    -0.2740    19.3880 C.2   1 LIG   0.0000 
 24 CL24     6.0910     0.9670    18.2460 Cl    1 LIG   0.0000 
 25 S25      5.8760    -1.7560    19.6480 S.3   1 LIG   0.0000 
 26 C26      8.2130    -4.0320    23.8530 C.3   1 LIG   0.0000 
 27 C27      9.2920    -3.1700    23.2180 C.3   1 LIG   0.0000 
 28 H28      9.1410    -3.1190    22.2310 H     1 LIG   0.0000 
 29 H29     10.1890    -3.5730    23.3980 H     1 LIG   0.0000 
 30 C30      9.2370    -1.7710    23.8110 C.3   1 LIG   0.0000 
 31 H31      8.5060    -1.2500    23.3700 H     1 LIG   0.0000 
 32 H32      9.0560    -1.8320    24.7930 H     1 LIG   0.0000 
 33 C33     10.5680    -1.0720    23.5830 C.ar  1 LIG   0.0000 
 34 C34     11.4330    -1.5280    22.5950 C.ar  1 LIG   0.0000 
 35 H35     11.1810    -2.3170    22.0350 H     1 LIG   0.0000 
 36 C36     12.6500    -0.8880    22.3860 C.ar  1 LIG   0.0000 
 37 H37     13.2720    -1.2160    21.6750 H     1 LIG   0.0000 
 38 C38     13.0020     0.2090    23.1660 C.ar  1 LIG   0.0000 
 39 H39     13.8770     0.6690    23.0160 H     1 LIG   0.0000 
 40 C40     12.1370     0.6660    24.1560 C.ar  1 LIG   0.0000 
 41 H41     12.3900     1.4540    24.7170 H     1 LIG   0.0000 
 42 C42     10.9200     0.0250    24.3640 C.ar  1 LIG   0.0000 
 43 O43     10.0910     0.4810    25.3280 O.3   1 LIG   0.0000 
 44 H44     10.4600     0.9960    26.1020 H     1 LIG   0.0000 
 45 C45      8.3140    -3.8640    25.3620 C.3   1 LIG   0.0000 
 46 H46      9.1440    -4.3180    25.6840 H     1 LIG   0.0000 
 47 H47      8.3610    -2.8890    25.5780 H     1 LIG   0.0000 
 48 H48      8.3940    -4.9890    23.6250 H     1 LIG   0.0000 
@<TRIPOS>BOND
  1   1   2  2   
  2   2   3  1   
  3   2   7  am  
  4   3   4  1   
  5   3   5  1   
  6   3   6  1   
  7   7   8  1   
  8   7  45  1   
  9   8   9  1   
 10   8  10  1   
 11   8  11  1   
 12  11  12  1   
 13  11  13  1   
 14  11  14  1   
 15  14  15  am  
 16  14  26  1   
 17  15  16  2   
 18  15  17  2   
 19  15  18  1   
 20  18  19  2   
 21  18  25  1   
 22  19  20  1   
 23  19  21  1   
 24  21  22  1   
 25  21  23  2   
 26  23  24  1   
 27  23  25  1   
 28  26  27  1   
 29  26  45  1   
 30  26  48  1   
 31  27  28  1   
 32  27  29  1   
 33  27  30  1   
 34  30  31  1   
 35  30  32  1   
 36  30  33  1   
 37  33  34  ar  
 38  33  42  ar  
 39  34  35  1   
 40  34  36  ar  
 41  36  37  1   
 42  36  38  ar  
 43  38  39  1   
 44  38  40  ar  
 45  40  41  1   
 46  40  42  ar  
 47  42  43  1   
 48  43  44  1   
 49  45  46  1   
 50  45  47  1   
@<TRIPOS>SUBSTRUCTURE
  1 LIG  27 GROUP 4 **** **** 0
@<TRIPOS>PROPERTY_DATA
index	|	ligand538
Name	|	SAL-INS-1ea-3
ChemPlp	|	-94.9502
MM-GBSA Nwat=0	|	36.2731
STDEV0	|	7.1544
MM-GBSA Nwat=30	|	-43.5074
STDEV30	|	16.1891
MM-GBSA Nwat=60	|	-96.9437
STDEV60	|	13.5704
ST.DEV < 10%	|	N
RMSD LIG < 2	|	
DIST < 5	|	
DIST < 3.5	|	N

# MOE 2019.01 (io_trps.svl 2018.10)

@<TRIPOS>MOLECULE
ligand422
53 56 1 0 0 
SMALL
USER_CHARGES


@<TRIPOS>ATOM
  1 O1       7.4980    -5.9260    27.0990 O.2   1 LIG   0.0000 
  2 C2       7.1040    -4.9750    26.4830 C.2   1 LIG   0.0000 
  3 C3       5.6130    -4.6930    26.3930 C.3   1 LIG   0.0000 
  4 CL6      4.7280    -6.2270    26.2100 Cl    1 LIG   0.0000 
  5 N7       8.0160    -4.1260    25.8460 N.am  1 LIG   0.0000 
  6 C8       9.4500    -4.4380    25.9620 C.3   1 LIG   0.0000 
  7 C11     10.2230    -4.0110    24.7230 C.3   1 LIG   0.0000 
  8 N14      9.8420    -2.6610    24.2760 N.4   1 LIG   1.0000 
  9 C15     10.6740    -2.3320    23.1100 C.3   1 LIG   0.0000 
 10 C18     10.3190    -0.9390    22.6100 C.ar  1 LIG   0.0000 
 11 C19      9.2830    -0.8290    21.6890 C.ar  1 LIG   0.0000 
 12 C21      8.9230     0.4240    21.2030 C.ar  1 LIG   0.0000 
 13 C23      9.5900     1.5670    21.6300 C.ar  1 LIG   0.0000 
 14 C25     10.6270     1.4640    22.5520 C.ar  1 LIG   0.0000 
 15 C26     11.2830     2.6170    22.9710 C.ar  1 LIG   0.0000 
 16 C28     12.3180     2.5110    23.8930 C.ar  1 LIG   0.0000 
 17 C30     12.7010     1.2710    24.3950 C.ar  1 LIG   0.0000 
 18 C32     12.0260     0.1370    23.9560 C.ar  1 LIG   0.0000 
 19 C34     10.9850     0.2090    23.0360 C.ar  1 LIG   0.0000 
 20 C35      8.4250    -2.7080    23.8830 C.3   1 LIG   0.0000 
 21 C38      7.5340    -2.9590    25.0890 C.3   1 LIG   0.0000 
 22 C39      6.1110    -3.1380    24.5850 C.3   1 LIG   0.0000 
 23 C42      6.1090    -4.0980    23.4050 C.ar  1 LIG   0.0000 
 24 C43      6.4260    -5.4380    23.5970 C.ar  1 LIG   0.0000 
 25 C45      6.4230    -6.3120    22.5150 C.ar  1 LIG   0.0000 
 26 C47      6.0980    -5.8180    21.2560 C.ar  1 LIG   0.0000 
 27 N49      5.7960    -4.5220    21.0890 N.ar  1 LIG   0.0000 
 28 C50      5.7940    -3.6660    22.1210 C.ar  1 LIG   0.0000 
 29 H19      8.7980    -1.6470    21.3780 H     1 LIG   0.0000 
 30 H21      8.1780     0.5030    20.5400 H     1 LIG   0.0000 
 31 H23      9.3240     2.4630    21.2750 H     1 LIG   0.0000 
 32 H26     11.0140     3.5110    22.6130 H     1 LIG   0.0000 
 33 H28     12.7940     3.3360    24.1990 H     1 LIG   0.0000 
 34 H30     13.4470     1.1970    25.0570 H     1 LIG   0.0000 
 35 H32     12.2980    -0.7570    24.3130 H     1 LIG   0.0000 
 36 H43      6.6560    -5.7720    24.5110 H     1 LIG   0.0000 
 37 H45      6.6490    -7.2780    22.6400 H     1 LIG   0.0000 
 38 H47      6.0910    -6.4340    20.4680 H     1 LIG   0.0000 
 39 H50      5.5640    -2.7050    21.9660 H     1 LIG   0.0000 
 40 H31      5.3100    -4.2310    27.2270 H     1 LIG   0.0000 
 41 H32      5.4310    -4.1070    25.6030 H     1 LIG   0.0000 
 42 H81      9.5570    -5.4250    26.0870 H     1 LIG   0.0000 
 43 H82      9.8220    -3.9600    26.7580 H     1 LIG   0.0000 
 44 H111    11.2010    -4.0170    24.9340 H     1 LIG   0.0000 
 45 H112    10.0370    -4.6600    23.9860 H     1 LIG   0.0000 
 46 H14      9.9830    -1.9950    25.0080 H     1 LIG   0.0000 
 47 H151    10.5090    -2.9990    22.3830 H     1 LIG   0.0000 
 48 H152    11.6390    -2.3560    23.3720 H     1 LIG   0.0000 
 49 H351     8.2940    -3.4440    23.2200 H     1 LIG   0.0000 
 50 H352     8.1730    -1.8340    23.4660 H     1 LIG   0.0000 
 51 H38      7.5650    -2.1550    25.6840 H     1 LIG   0.0000 
 52 H391     5.5420    -3.5100    25.3180 H     1 LIG   0.0000 
 53 H392     5.7460    -2.2530    24.2950 H     1 LIG   0.0000 
@<TRIPOS>BOND
  1   1   2  2   
  2   2   3  1   
  3   2   5  am  
  4   3   4  1   
  5   3  40  1   
  6   3  41  1   
  7   5   6  1   
  8   5  21  1   
  9   6   7  1   
 10   6  42  1   
 11   6  43  1   
 12   7   8  1   
 13   7  44  1   
 14   7  45  1   
 15   8   9  1   
 16   8  20  1   
 17   8  46  1   
 18   9  10  1   
 19   9  47  1   
 20   9  48  1   
 21  10  11  ar  
 22  10  19  ar  
 23  11  12  ar  
 24  11  29  1   
 25  12  13  ar  
 26  12  30  1   
 27  13  14  ar  
 28  13  31  1   
 29  14  15  ar  
 30  14  19  ar  
 31  15  16  ar  
 32  15  32  1   
 33  16  17  ar  
 34  16  33  1   
 35  17  18  ar  
 36  17  34  1   
 37  18  19  ar  
 38  18  35  1   
 39  20  21  1   
 40  20  49  1   
 41  20  50  1   
 42  21  22  1   
 43  21  51  1   
 44  22  23  1   
 45  22  52  1   
 46  22  53  1   
 47  23  24  ar  
 48  23  28  ar  
 49  24  25  ar  
 50  24  36  1   
 51  25  26  ar  
 52  25  37  1   
 53  26  27  ar  
 54  26  38  1   
 55  27  28  ar  
 56  28  39  1   
@<TRIPOS>SUBSTRUCTURE
  1 LIG  20 GROUP 4 **** **** 0
@<TRIPOS>PROPERTY_DATA
index	|	ligand422
Name	|	MIH-UNI-e57-3
ChemPlp	|	-93.4544
MM-GBSA Nwat=0	|	-25.2077
STDEV0	|	3.4927
MM-GBSA Nwat=30	|	-43.1258
STDEV30	|	4.8223
MM-GBSA Nwat=60	|	-46.214
STDEV60	|	4.4433
ST.DEV < 10%	|	N
RMSD LIG < 2	|	
DIST < 5	|	
DIST < 3.5	|	N

# MOE 2019.01 (io_trps.svl 2018.10)

@<TRIPOS>MOLECULE
ligand117
48 51 1 0 0 
SMALL
NO_CHARGES


@<TRIPOS>ATOM
  1 O1       7.4540    -3.3170    25.5800 O.2   1 LIG   0.0000 
  2 C2       8.5930    -3.4160    25.2160 C.2   1 LIG   0.0000 
  3 C3       9.5200    -4.4180    25.8840 C.3   1 LIG   0.0000 
  4 CL6      8.7670    -5.0160    27.3820 Cl    1 LIG   0.0000 
  5 N7       9.0680    -2.6080    24.1770 N.am  1 LIG   0.0000 
  6 C8      10.4730    -2.7770    23.7750 C.3   1 LIG   0.0000 
  7 C11     10.9380    -1.4950    23.1030 C.ar  1 LIG   0.0000 
  8 C12     12.2440    -1.0530    23.2870 C.ar  1 LIG   0.0000 
  9 C14     12.6750     0.1180    22.6730 C.ar  1 LIG   0.0000 
 10 C16     11.8250     0.8680    21.8690 C.ar  1 LIG   0.0000 
 11 C18     10.5230     0.4180    21.6940 C.ar  1 LIG   0.0000 
 12 C20     10.0760    -0.7510    22.3040 C.ar  1 LIG   0.0000 
 13 C21      8.6510    -1.2450    22.1260 C.3   1 LIG   0.0000 
 14 C22      7.6890    -0.1760    21.6340 C.ar  1 LIG   0.0000 
 15 C23      7.1280     0.7210    22.5370 C.ar  1 LIG   0.0000 
 16 C25      6.2500     1.6940    22.0700 C.ar  1 LIG   0.0000 
 17 C27      5.9310     1.7760    20.7180 C.ar  1 LIG   0.0000 
 18 C29      6.5030     0.8690    19.8320 C.ar  1 LIG   0.0000 
 19 CL30     6.0990     0.9670    18.1010 Cl    1 LIG   0.0000 
 20 C31      7.3830    -0.1110    20.2790 C.ar  1 LIG   0.0000 
 21 C33      8.1830    -1.6300    23.5180 C.3   1 LIG   0.0000 
 22 C34      6.7700    -2.1930    23.4850 C.3   1 LIG   0.0000 
 23 C37      6.6440    -3.1800    22.3360 C.ar  1 LIG   0.0000 
 24 C38      7.3800    -4.3600    22.3470 C.ar  1 LIG   0.0000 
 25 C40      7.2620    -5.2600    21.2940 C.ar  1 LIG   0.0000 
 26 C42      6.4000    -4.9540    20.2450 C.ar  1 LIG   0.0000 
 27 N44      5.6990    -3.8120    20.2500 N.ar  1 LIG   0.0000 
 28 C45      5.8010    -2.9320    21.2580 C.ar  1 LIG   0.0000 
 29 H12     12.8720    -1.5770    23.8610 H     1 LIG   0.0000 
 30 H14     13.6160     0.4270    22.8130 H     1 LIG   0.0000 
 31 H16     12.1420     1.7070    21.4280 H     1 LIG   0.0000 
 32 H18      9.8940     0.9430    21.1200 H     1 LIG   0.0000 
 33 H23      7.3520     0.6670    23.5100 H     1 LIG   0.0000 
 34 H25      5.8430     2.3420    22.7140 H     1 LIG   0.0000 
 35 H27      5.2990     2.4780    20.3890 H     1 LIG   0.0000 
 36 H31      7.7900    -0.7590    19.6350 H     1 LIG   0.0000 
 37 H38      7.9930    -4.5600    23.1110 H     1 LIG   0.0000 
 38 H40      7.7860    -6.1120    21.2910 H     1 LIG   0.0000 
 39 H42      6.3040    -5.5920    19.4800 H     1 LIG   0.0000 
 40 H45      5.2640    -2.0890    21.2340 H     1 LIG   0.0000 
 41 H31      9.6830    -5.1860    25.2630 H     1 LIG   0.0000 
 42 H32     10.3890    -3.9750    26.1020 H     1 LIG   0.0000 
 43 H81     10.5520    -3.5410    23.1350 H     1 LIG   0.0000 
 44 H82     11.0350    -2.9580    24.5820 H     1 LIG   0.0000 
 45 H21      8.6300    -2.0390    21.5180 H     1 LIG   0.0000 
 46 H33      8.1700    -0.8010    24.0770 H     1 LIG   0.0000 
 47 H341     6.5770    -2.6590    24.3480 H     1 LIG   0.0000 
 48 H342     6.1170    -1.4460    23.3570 H     1 LIG   0.0000 
@<TRIPOS>BOND
  1   1   2  2   
  2   2   3  1   
  3   2   5  am  
  4   3   4  1   
  5   3  41  1   
  6   3  42  1   
  7   5   6  1   
  8   5  21  1   
  9   6   7  1   
 10   6  43  1   
 11   6  44  1   
 12   7   8  ar  
 13   7  12  ar  
 14   8   9  ar  
 15   8  29  1   
 16   9  10  ar  
 17   9  30  1   
 18  10  11  ar  
 19  10  31  1   
 20  11  12  ar  
 21  11  32  1   
 22  12  13  1   
 23  13  14  1   
 24  13  21  1   
 25  13  45  1   
 26  14  15  ar  
 27  14  20  ar  
 28  15  16  ar  
 29  15  33  1   
 30  16  17  ar  
 31  16  34  1   
 32  17  18  ar  
 33  17  35  1   
 34  18  19  1   
 35  18  20  ar  
 36  20  36  1   
 37  21  22  1   
 38  21  46  1   
 39  22  23  1   
 40  22  47  1   
 41  22  48  1   
 42  23  24  ar  
 43  23  28  ar  
 44  24  25  ar  
 45  24  37  1   
 46  25  26  ar  
 47  25  38  1   
 48  26  27  ar  
 49  26  39  1   
 50  27  28  ar  
 51  28  40  1   
@<TRIPOS>SUBSTRUCTURE
  1 LIG  13 GROUP 4 **** **** 0
@<TRIPOS>PROPERTY_DATA
index	|	ligand117
Name	|	DAV-CRI-1c7-4
ChemPlp	|	-94.2734
MM-GBSA Nwat=0	|	-27.8922
STDEV0	|	3.2702
MM-GBSA Nwat=30	|	-42.8651
STDEV30	|	5.2928
MM-GBSA Nwat=60	|	-43.995
STDEV60	|	5.0963
ST.DEV < 10%	|	N
RMSD LIG < 2	|	
DIST < 5	|	
DIST < 3.5	|	N

# MOE 2019.01 (io_trps.svl 2018.10)

@<TRIPOS>MOLECULE
ligand529
49 51 1 0 0 
SMALL
NO_CHARGES


@<TRIPOS>ATOM
  1 C1      11.8530     4.5010    24.6950 C.3   1 LIG   0.0000 
  2 C5      11.1710     3.1430    24.6890 C.3   1 LIG   0.0000 
  3 C7       9.6630     3.3340    24.6930 C.3   1 LIG   0.0000 
  4 N11     11.5670     2.4000    23.4840 N.am  1 LIG   0.0000 
  5 C12     12.2820     3.0880    22.3990 C.3   1 LIG   0.0000 
  6 C16     11.2710     1.0680    23.3720 C.2   1 LIG   0.0000 
  7 O17     11.8590     0.2640    24.0400 O.2   1 LIG   0.0000 
  8 C18     10.2490     0.6300    22.4490 C.ar  1 LIG   0.0000 
  9 C19      9.5540     1.5760    21.7070 C.ar  1 LIG   0.0000 
 10 C21      8.5640     1.1200    20.8480 C.ar  1 LIG   0.0000 
 11 C23      8.2920    -0.2380    20.7440 C.ar  1 LIG   0.0000 
 12 C24      9.0050    -1.1600    21.4960 C.ar  1 LIG   0.0000 
 13 C25     10.0050    -0.7320    22.3560 C.ar  1 LIG   0.0000 
 14 C27      8.7110    -2.6450    21.4130 C.3   1 LIG   0.0000 
 15 N30      7.2530    -2.7570    21.2910 N.am  1 LIG   0.0000 
 16 C31      6.6570    -3.9350    21.7570 C.2   1 LIG   0.0000 
 17 O32      5.4680    -4.0760    21.6810 O.2   1 LIG   0.0000 
 18 C33      7.5160    -5.0340    22.3610 C.3   1 LIG   0.0000 
 19 CL36     6.6330    -6.5790    22.2970 Cl    1 LIG   0.0000 
 20 C37      6.4180    -1.6930    20.7180 C.3   1 LIG   0.0000 
 21 C40      7.2100    -0.7600    19.8220 C.3   1 LIG   0.0000 
 22 C41      6.2290     0.3020    19.3470 C.2   1 LIG   0.0000 
 23 C42      5.7530     0.4430    18.0740 C.2   1 LIG   0.0000 
 24 N44      4.9130     1.5210    18.0950 N.pl3 1 LIG   0.0000 
 25 C46      4.8720     2.0220    19.3670 C.2   1 LIG   0.0000 
 26 N48      5.6680     1.2820    20.1080 N.2   1 LIG   0.0000 
 27 H19      9.7590     2.5510    21.7900 H     1 LIG   0.0000 
 28 H21      8.0440     1.7740    20.2990 H     1 LIG   0.0000 
 29 H25     10.5350    -1.3870    22.8940 H     1 LIG   0.0000 
 30 H42      5.9750    -0.1280    17.2840 H     1 LIG   0.0000 
 31 H44      4.4120     1.8840    17.3090 H     1 LIG   0.0000 
 32 H46      4.3350     2.8070    19.6770 H     1 LIG   0.0000 
 33 H11     11.5830     5.0060    25.5150 H     1 LIG   0.0000 
 34 H12     12.8450     4.3750    24.6930 H     1 LIG   0.0000 
 35 H13     11.5800     5.0150    23.8820 H     1 LIG   0.0000 
 36 H5      11.4440     2.6290    25.5020 H     1 LIG   0.0000 
 37 H71      9.3930     3.8380    25.5130 H     1 LIG   0.0000 
 38 H72      9.3900     3.8480    23.8800 H     1 LIG   0.0000 
 39 H73      9.2140     2.4400    24.6890 H     1 LIG   0.0000 
 40 H121    12.4160     4.0480    22.6440 H     1 LIG   0.0000 
 41 H122    13.1720     2.6540    22.2580 H     1 LIG   0.0000 
 42 H123    11.7460     3.0300    21.5570 H     1 LIG   0.0000 
 43 H271     9.1600    -3.0450    20.6140 H     1 LIG   0.0000 
 44 H272     9.0280    -3.1100    22.2400 H     1 LIG   0.0000 
 45 H331     8.3670    -5.1150    21.8420 H     1 LIG   0.0000 
 46 H332     7.7250    -4.8090    23.3120 H     1 LIG   0.0000 
 47 H371     6.0180    -1.1610    21.4640 H     1 LIG   0.0000 
 48 H372     5.6880    -2.1130    20.1790 H     1 LIG   0.0000 
 49 H40      7.6060    -1.2540    19.0490 H     1 LIG   0.0000 
@<TRIPOS>BOND
  1   1   2  1   
  2   1  33  1   
  3   1  34  1   
  4   1  35  1   
  5   2   3  1   
  6   2   4  1   
  7   2  36  1   
  8   3  37  1   
  9   3  38  1   
 10   3  39  1   
 11   4   5  1   
 12   4   6  am  
 13   5  40  1   
 14   5  41  1   
 15   5  42  1   
 16   6   7  2   
 17   6   8  1   
 18   8   9  ar  
 19   8  13  ar  
 20   9  10  ar  
 21   9  27  1   
 22  10  11  ar  
 23  10  28  1   
 24  11  12  ar  
 25  11  21  1   
 26  12  13  ar  
 27  12  14  1   
 28  13  29  1   
 29  14  15  1   
 30  14  43  1   
 31  14  44  1   
 32  15  16  am  
 33  15  20  1   
 34  16  17  2   
 35  16  18  1   
 36  18  19  1   
 37  18  45  1   
 38  18  46  1   
 39  20  21  1   
 40  20  47  1   
 41  20  48  1   
 42  21  22  1   
 43  21  49  1   
 44  22  23  2   
 45  22  26  1   
 46  23  24  1   
 47  23  30  1   
 48  24  25  1   
 49  24  31  1   
 50  25  26  2   
 51  25  32  1   
@<TRIPOS>SUBSTRUCTURE
  1 LIG  11 GROUP 4 **** **** 0
@<TRIPOS>PROPERTY_DATA
index	|	ligand529
Name	|	SAL-INS-1c7-3
ChemPlp	|	-91.8989
MM-GBSA Nwat=0	|	-25.0231
STDEV0	|	3.1041
MM-GBSA Nwat=30	|	-41.6964
STDEV30	|	5.4251
MM-GBSA Nwat=60	|	-52.8881
STDEV60	|	4.8557
ST.DEV < 10%	|	N
RMSD LIG < 2	|	
DIST < 5	|	
DIST < 3.5	|	N

# MOE 2019.01 (io_trps.svl 2018.10)

@<TRIPOS>MOLECULE
ligand085
53 56 1 0 0 
SMALL
NO_CHARGES


@<TRIPOS>ATOM
  1 C1       6.3620    -2.5760    21.9200 C.3   1 LIG   0.0000 
  2 C5       5.9320    -2.7330    20.4710 C.2   1 LIG   0.0000 
  3 O6       5.5020    -3.7840    20.0830 O.2   1 LIG   0.0000 
  4 N7       6.0370    -1.6750    19.6070 N.am  1 LIG   0.0000 
  5 C9       6.5640    -0.3880    20.0820 C.3   1 LIG   0.0000 
  6 C12      8.0270    -0.5480    20.4610 C.3   1 LIG   0.0000 
  7 C15      8.5150     0.7180    21.1470 C.2   1 LIG   0.0000 
  8 C16      7.8070     1.8780    21.2630 C.2   1 LIG   0.0000 
  9 N18      8.5840     2.7720    21.9410 N.pl3 1 LIG   0.0000 
 10 C20      9.7750     2.1780    22.2500 C.ar  1 LIG   0.0000 
 11 C21     10.8670     2.7080    22.9300 C.ar  1 LIG   0.0000 
 12 C22     10.8580     4.1360    23.4560 C.3   1 LIG   0.0000 
 13 C23     11.0660     4.0410    24.9560 C.3   1 LIG   0.0000 
 14 N26     11.1110     5.4200    25.4530 N.am  1 LIG   0.0000 
 15 C27     10.0390     6.0460    26.1010 C.2   1 LIG   0.0000 
 16 O28      9.0140     5.4480    26.2810 O.2   1 LIG   0.0000 
 17 C29     10.1730     7.4840    26.5760 C.3   1 LIG   0.0000 
 18 CL32    11.7810     7.7210    27.3020 Cl    1 LIG   0.0000 
 19 C33     12.4000     6.0720    25.1900 C.3   1 LIG   0.0000 
 20 C36     12.7370     5.8270    23.7270 C.ar  1 LIG   0.0000 
 21 C37     13.8100     6.5330    23.2050 C.ar  1 LIG   0.0000 
 22 C39     14.2000     6.3650    21.8810 C.ar  1 LIG   0.0000 
 23 C41     13.5050     5.4760    21.0670 C.ar  1 LIG   0.0000 
 24 C43     12.4280     4.7670    21.5890 C.ar  1 LIG   0.0000 
 25 C45     12.0360     4.9310    22.9130 C.ar  1 LIG   0.0000 
 26 C46     11.9970     1.9250    23.1380 C.ar  1 LIG   0.0000 
 27 C48     12.0320     0.6160    22.6680 C.ar  1 LIG   0.0000 
 28 F49     13.1250    -0.1120    22.8770 F     1 LIG   0.0000 
 29 C50     10.9170     0.1220    21.9930 C.ar  1 LIG   0.0000 
 30 C52      9.7720     0.8850    21.7710 C.ar  1 LIG   0.0000 
 31 H16      6.8840     2.0440    20.9150 H     1 LIG   0.0000 
 32 H18      8.3240     3.7090    22.1740 H     1 LIG   0.0000 
 33 H46     12.7840     2.3020    23.6260 H     1 LIG   0.0000 
 34 H50     10.9400    -0.8190    21.6540 H     1 LIG   0.0000 
 35 H37     14.3100     7.1720    23.7890 H     1 LIG   0.0000 
 36 H39     14.9760     6.8800    21.5160 H     1 LIG   0.0000 
 37 H41     13.7780     5.3480    20.1140 H     1 LIG   0.0000 
 38 H43     11.9290     4.1300    21.0030 H     1 LIG   0.0000 
 39 H11      6.6930    -1.6440    22.0710 H     1 LIG   0.0000 
 40 H12      5.5820    -2.7540    22.5200 H     1 LIG   0.0000 
 41 H13      7.0940    -3.2270    22.1230 H     1 LIG   0.0000 
 42 H91      6.0430    -0.0890    20.8820 H     1 LIG   0.0000 
 43 H92      6.4810     0.2950    19.3560 H     1 LIG   0.0000 
 44 H121     8.1270    -1.3240    21.0840 H     1 LIG   0.0000 
 45 H122     8.5690    -0.7100    19.6360 H     1 LIG   0.0000 
 46 H22      9.9930     4.5900    23.2440 H     1 LIG   0.0000 
 47 H231    10.3090     3.5440    25.3800 H     1 LIG   0.0000 
 48 H232    11.9260     3.5720    25.1580 H     1 LIG   0.0000 
 49 H291    10.0640     8.1030    25.7990 H     1 LIG   0.0000 
 50 H292     9.4680     7.6760    27.2580 H     1 LIG   0.0000 
 51 H331    13.1080     5.6780    25.7750 H     1 LIG   0.0000 
 52 H332    12.3290     7.0540    25.3650 H     1 LIG   0.0000 
 53 H7       5.7540    -1.7780    18.6530 H     1 LIG   0.0000 
@<TRIPOS>BOND
  1   1   2  1   
  2   1  39  1   
  3   1  40  1   
  4   1  41  1   
  5   2   3  2   
  6   2   4  am  
  7   4   5  1   
  8   4  53  1   
  9   5   6  1   
 10   5  42  1   
 11   5  43  1   
 12   6   7  1   
 13   6  44  1   
 14   6  45  1   
 15   7   8  2   
 16   7  30  1   
 17   8   9  1   
 18   8  31  1   
 19   9  10  1   
 20   9  32  1   
 21  10  11  ar  
 22  10  30  ar  
 23  11  12  1   
 24  11  26  ar  
 25  12  13  1   
 26  12  25  1   
 27  12  46  1   
 28  13  14  1   
 29  13  47  1   
 30  13  48  1   
 31  14  15  am  
 32  14  19  1   
 33  15  16  2   
 34  15  17  1   
 35  17  18  1   
 36  17  49  1   
 37  17  50  1   
 38  19  20  1   
 39  19  51  1   
 40  19  52  1   
 41  20  21  ar  
 42  20  25  ar  
 43  21  22  ar  
 44  21  35  1   
 45  22  23  ar  
 46  22  36  1   
 47  23  24  ar  
 48  23  37  1   
 49  24  25  ar  
 50  24  38  1   
 51  26  27  ar  
 52  26  33  1   
 53  27  28  1   
 54  27  29  ar  
 55  29  30  ar  
 56  29  34  1   
@<TRIPOS>SUBSTRUCTURE
  1 LIG  11 GROUP 4 **** **** 0
@<TRIPOS>PROPERTY_DATA
index	|	ligand085
Name	|	DAR-DIA-cab-6
ChemPlp	|	-95.3261
MM-GBSA Nwat=0	|	-14.9028
STDEV0	|	2.457
MM-GBSA Nwat=30	|	-41.4794
STDEV30	|	5.9819
MM-GBSA Nwat=60	|	-60.8579
STDEV60	|	6.6422
ST.DEV < 10%	|	N
RMSD LIG < 2	|	
DIST < 5	|	
DIST < 3.5	|	N

# MOE 2019.01 (io_trps.svl 2018.10)

@<TRIPOS>MOLECULE
ligand253
53 55 1 0 0 
SMALL
NO_CHARGES


@<TRIPOS>ATOM
  1 C1      12.6870     0.3710    23.5190 C.2   1 LIG   0.0000 
  2 C4      12.3210    -0.4500    22.5790 C.2   1 LIG   0.0000 
  3 C5      13.3230    -1.4320    21.9960 C.3   1 LIG   0.0000 
  4 C9      10.8910    -0.4260    22.0640 C.3   1 LIG   0.0000 
  5 C12     10.2460    -1.7820    22.2960 C.3   1 LIG   0.0000 
  6 C15     10.2010    -2.0730    23.7880 C.3   1 LIG   0.0000 
  7 C18      9.4020    -3.3430    24.0320 C.2   1 LIG   0.0000 
  8 C19      9.6380    -4.2140    25.0520 C.2   1 LIG   0.0000 
  9 N21      8.7240    -5.2170    24.9290 N.pl3 1 LIG   0.0000 
 10 C23      7.9620    -4.9240    23.8390 C.2   1 LIG   0.0000 
 11 C24      8.3170    -3.7800    23.2340 C.2   1 LIG   0.0000 
 12 N25      7.6280    -3.3310    22.0980 N.am  1 LIG   0.0000 
 13 C27      6.3210    -3.7420    21.7970 C.2   1 LIG   0.0000 
 14 O28      5.7330    -3.3040    20.8220 O.2   1 LIG   0.0000 
 15 C29      5.6610    -4.7340    22.7400 C.3   1 LIG   0.0000 
 16 C30      5.1690    -4.0330    23.9920 C.3   1 LIG   0.0000 
 17 C33      5.0530    -5.0200    25.1440 C.3   1 LIG   0.0000 
 18 C34      5.8100    -4.5380    26.3710 C.3   1 LIG   0.0000 
 19 C37      5.7380    -5.5980    27.4590 C.3   1 LIG   0.0000 
 20 C40      6.7030    -5.2410    28.5780 C.3   1 LIG   0.0000 
 21 C43      6.4390    -6.1350    29.7790 C.2   1 LIG   0.0000 
 22 N44      6.2460    -7.4800    29.6020 N.pl3 1 LIG   0.0000 
 23 N46      6.3970    -5.6430    30.9270 N.2   1 LIG   0.0000 
 24 S49      5.8280    -6.4940    24.4330 S.3   1 LIG   0.0000 
 25 C50      6.7970    -5.6340    23.1820 C.3   1 LIG   0.0000 
 26 H19     10.3460    -4.1340    25.7540 H     1 LIG   0.0000 
 27 H21      8.6310    -6.0140    25.5260 H     1 LIG   0.0000 
 28 H51     12.8770    -1.9830    21.2900 H     1 LIG   0.0000 
 29 H52     14.0880    -0.9290    21.5930 H     1 LIG   0.0000 
 30 H53     13.6630    -2.0310    22.7210 H     1 LIG   0.0000 
 31 H91     10.8930    -0.2210    21.0850 H     1 LIG   0.0000 
 32 H92     10.3730     0.2770    22.5510 H     1 LIG   0.0000 
 33 H121     9.3160    -1.7770    21.9300 H     1 LIG   0.0000 
 34 H122    10.7820    -2.4900    21.8350 H     1 LIG   0.0000 
 35 H151    11.1320    -2.1930    24.1320 H     1 LIG   0.0000 
 36 H152     9.7650    -1.3090    24.2630 H     1 LIG   0.0000 
 37 H29      4.9320    -5.2480    22.2900 H     1 LIG   0.0000 
 38 H301     5.8150    -3.3110    24.2410 H     1 LIG   0.0000 
 39 H302     4.2720    -3.6300    23.8130 H     1 LIG   0.0000 
 40 H33      4.0940    -5.1950    25.3660 H     1 LIG   0.0000 
 41 H341     5.4000    -3.6900    26.7040 H     1 LIG   0.0000 
 42 H342     6.7670    -4.3740    26.1290 H     1 LIG   0.0000 
 43 H371     4.8070    -5.6400    27.8220 H     1 LIG   0.0000 
 44 H372     5.9870    -6.4870    27.0750 H     1 LIG   0.0000 
 45 H401     7.6430    -5.3740    28.2630 H     1 LIG   0.0000 
 46 H402     6.5710    -4.2850    28.8390 H     1 LIG   0.0000 
 47 H50      7.0960    -6.2480    22.4520 H     1 LIG   0.0000 
 48 H11     13.6270     0.3550    23.8580 H     1 LIG   0.0000 
 49 H12     12.0270     1.0170    23.9030 H     1 LIG   0.0000 
 50 H25      8.0860    -2.6940    21.4790 H     1 LIG   0.0000 
 51 H441     6.2800    -7.8730    28.6830 H     1 LIG   0.0000 
 52 H442     6.0730    -8.0680    30.3920 H     1 LIG   0.0000 
 53 H462     6.5370    -4.6620    31.0560 H     1 LIG   0.0000 
@<TRIPOS>BOND
  1   1   2  2   
  2   1  48  1   
  3   1  49  1   
  4   2   3  1   
  5   2   4  1   
  6   3  28  1   
  7   3  29  1   
  8   3  30  1   
  9   4   5  1   
 10   4  31  1   
 11   4  32  1   
 12   5   6  1   
 13   5  33  1   
 14   5  34  1   
 15   6   7  1   
 16   6  35  1   
 17   6  36  1   
 18   7   8  2   
 19   7  11  1   
 20   8   9  1   
 21   8  26  1   
 22   9  10  1   
 23   9  27  1   
 24  10  11  2   
 25  10  25  1   
 26  11  12  1   
 27  12  13  am  
 28  12  50  1   
 29  13  14  2   
 30  13  15  1   
 31  15  16  1   
 32  15  25  1   
 33  15  37  1   
 34  16  17  1   
 35  16  38  1   
 36  16  39  1   
 37  17  18  1   
 38  17  24  1   
 39  17  40  1   
 40  18  19  1   
 41  18  41  1   
 42  18  42  1   
 43  19  20  1   
 44  19  43  1   
 45  19  44  1   
 46  20  21  1   
 47  20  45  1   
 48  20  46  1   
 49  21  22  1   
 50  21  23  2   
 51  22  51  1   
 52  22  52  1   
 53  23  53  1   
 54  24  25  1   
 55  25  47  1   
@<TRIPOS>SUBSTRUCTURE
  1 LIG  10 GROUP 4 **** **** 0
@<TRIPOS>PROPERTY_DATA
index	|	ligand253
Name	|	JOH-CHE-350-3
ChemPlp	|	-92.904
MM-GBSA Nwat=0	|	-18.8433
STDEV0	|	3.0007
MM-GBSA Nwat=30	|	-40.8502
STDEV30	|	6.2637
MM-GBSA Nwat=60	|	-57.535
STDEV60	|	6.6439
ST.DEV < 10%	|	N
RMSD LIG < 2	|	
DIST < 5	|	
DIST < 3.5	|	N

# MOE 2019.01 (io_trps.svl 2018.10)

@<TRIPOS>MOLECULE
ligand161
73 76 1 0 0 
SMALL
NO_CHARGES


@<TRIPOS>ATOM
  1 C1       6.2500     0.9840    20.0820 C.3   1 LIG   0.0000 
  2 C5       5.0480     0.9070    19.1550 C.3   1 LIG   0.0000 
  3 N6       5.5000     0.5940    17.7910 N.3   1 LIG   0.0000 
  4 N9       4.3470     2.1990    19.1530 N.3   1 LIG   0.0000 
  5 C11      3.1590     2.1120    20.0160 C.3   1 LIG   0.0000 
  6 C12      1.9660     2.7200    19.2970 C.3   1 LIG   0.0000 
  7 C15      0.7240     2.5710    20.1610 C.2   1 LIG   0.0000 
  8 N16      0.0290     3.6830    20.5590 N.am  1 LIG   0.0000 
  9 O19      0.3530     1.4800    20.4960 O.2   1 LIG   0.0000 
 10 C20      3.4140     2.8730    21.3070 C.2   1 LIG   0.0000 
 11 O21      2.6490     2.7700    22.2250 O.2   1 LIG   0.0000 
 12 N22      4.5180     3.6760    21.4220 N.am  1 LIG   0.0000 
 13 C24      4.7650     4.4110    22.6720 C.3   1 LIG   0.0000 
 14 C25      4.9190     3.4590    23.8480 C.3   1 LIG   0.0000 
 15 C28      6.2350     2.7010    23.7600 C.3   1 LIG   0.0000 
 16 C31      7.4090     3.6690    23.7780 C.3   1 LIG   0.0000 
 17 C32      8.6770     2.8510    23.6080 C.2   1 LIG   0.0000 
 18 N33      8.7840     1.5770    23.3080 N.2   1 LIG   0.0000 
 19 C34     10.0640     1.0770    23.2190 C.ar  1 LIG   0.0000 
 20 C35     10.5820    -0.1810    22.9300 C.ar  1 LIG   0.0000 
 21 C36      9.7040    -1.2980    22.6420 C.ar  1 LIG   0.0000 
 22 C37      8.8720    -1.2470    21.5280 C.ar  1 LIG   0.0000 
 23 C39      8.0270    -2.3130    21.2410 C.ar  1 LIG   0.0000 
 24 C41      8.0250    -3.4220    22.0800 C.ar  1 LIG   0.0000 
 25 S42      6.9720    -4.7630    21.7330 S.o2  1 LIG   0.0000 
 26 N43      6.6520    -5.5740    23.1100 N.am  1 LIG   0.0000 
 27 O46      5.7410    -4.2730    21.1680 O.2   1 LIG   0.0000 
 28 O47      7.6130    -5.6460    20.7940 O.2   1 LIG   0.0000 
 29 C48      8.8540    -3.4780    23.1960 C.ar  1 LIG   0.0000 
 30 C50      9.6990    -2.4100    23.4790 C.ar  1 LIG   0.0000 
 31 C52     11.9520    -0.4200    22.9040 C.ar  1 LIG   0.0000 
 32 C54     12.8620     0.6000    23.1680 C.ar  1 LIG   0.0000 
 33 C56     12.4160     1.8760    23.4600 C.ar  1 LIG   0.0000 
 34 C58     11.0400     2.0190    23.4630 C.ar  1 LIG   0.0000 
 35 S59     10.2440     3.4800    23.7940 S.3   1 LIG   0.0000 
 36 C60      7.3360     4.6920    22.6520 C.3   1 LIG   0.0000 
 37 N63      5.9740     5.2220    22.4560 N.am  1 LIG   0.0000 
 38 C64      5.8090     6.5510    22.0490 C.2   1 LIG   0.0000 
 39 O65      4.7070     6.9960    21.8870 O.2   1 LIG   0.0000 
 40 C66      7.0260     7.4300    21.8120 C.3   1 LIG   0.0000 
 41 CL69     8.1500     7.2700    23.1830 Cl    1 LIG   0.0000 
 42 H52     12.2880    -1.3380    22.6940 H     1 LIG   0.0000 
 43 H54     13.8440     0.4080    23.1460 H     1 LIG   0.0000 
 44 H56     13.0390     2.6350    23.6540 H     1 LIG   0.0000 
 45 H37      8.8830    -0.4430    20.9330 H     1 LIG   0.0000 
 46 H39      7.4270    -2.2820    20.4410 H     1 LIG   0.0000 
 47 H48      8.8430    -4.2820    23.7900 H     1 LIG   0.0000 
 48 H50     10.2980    -2.4410    24.2790 H     1 LIG   0.0000 
 49 H11      6.7280     0.1060    20.0820 H     1 LIG   0.0000 
 50 H12      6.8710     1.7010    19.7630 H     1 LIG   0.0000 
 51 H13      5.9430     1.1980    21.0090 H     1 LIG   0.0000 
 52 H5       4.4270     0.1910    19.4730 H     1 LIG   0.0000 
 53 H11      2.9690     1.1530    20.2260 H     1 LIG   0.0000 
 54 H121     2.1380     3.6900    19.1260 H     1 LIG   0.0000 
 55 H122     1.8250     2.2480    18.4270 H     1 LIG   0.0000 
 56 H24      3.9930     5.0220    22.8470 H     1 LIG   0.0000 
 57 H251     4.1630     2.8040    23.8400 H     1 LIG   0.0000 
 58 H252     4.8980     3.9830    24.6990 H     1 LIG   0.0000 
 59 H281     6.3090     2.0800    24.5400 H     1 LIG   0.0000 
 60 H282     6.2560     2.1740    22.9110 H     1 LIG   0.0000 
 61 H31      7.4350     4.1430    24.6580 H     1 LIG   0.0000 
 62 H601     7.9470     5.4530    22.8720 H     1 LIG   0.0000 
 63 H602     7.6360     4.2570    21.8040 H     1 LIG   0.0000 
 64 H661     7.4850     7.1450    20.9700 H     1 LIG   0.0000 
 65 H662     6.7370     8.3840    21.7270 H     1 LIG   0.0000 
 66 H61      5.9780    -0.2850    17.7920 H     1 LIG   0.0000 
 67 H62      4.7090     0.5430    17.1810 H     1 LIG   0.0000 
 68 H9       4.0650     2.4250    18.2210 H     1 LIG   0.0000 
 69 H161     0.3380     4.5920    20.2800 H     1 LIG   0.0000 
 70 H162    -0.7880     3.5850    21.1280 H     1 LIG   0.0000 
 71 H22      5.1560     3.7620    20.6570 H     1 LIG   0.0000 
 72 H431     7.5060    -5.7430    23.6030 H     1 LIG   0.0000 
 73 H432     6.0390    -5.0290    23.6830 H     1 LIG   0.0000 
@<TRIPOS>BOND
  1   1   2  1   
  2   1  49  1   
  3   1  50  1   
  4   1  51  1   
  5   2   3  1   
  6   2   4  1   
  7   2  52  1   
  8   3  66  1   
  9   3  67  1   
 10   4   5  1   
 11   4  68  1   
 12   5   6  1   
 13   5  10  1   
 14   5  53  1   
 15   6   7  1   
 16   6  54  1   
 17   6  55  1   
 18   7   8  am  
 19   7   9  2   
 20   8  69  1   
 21   8  70  1   
 22  10  11  2   
 23  10  12  am  
 24  12  13  1   
 25  12  71  1   
 26  13  14  1   
 27  13  37  1   
 28  13  56  1   
 29  14  15  1   
 30  14  57  1   
 31  14  58  1   
 32  15  16  1   
 33  15  59  1   
 34  15  60  1   
 35  16  17  1   
 36  16  36  1   
 37  16  61  1   
 38  17  18  2   
 39  17  35  1   
 40  18  19  1   
 41  19  20  ar  
 42  19  34  ar  
 43  20  21  1   
 44  20  31  ar  
 45  21  22  ar  
 46  21  30  ar  
 47  22  23  ar  
 48  22  45  1   
 49  23  24  ar  
 50  23  46  1   
 51  24  25  1   
 52  24  29  ar  
 53  25  26  am  
 54  25  27  2   
 55  25  28  2   
 56  26  72  1   
 57  26  73  1   
 58  29  30  ar  
 59  29  47  1   
 60  30  48  1   
 61  31  32  ar  
 62  31  42  1   
 63  32  33  ar  
 64  32  43  1   
 65  33  34  ar  
 66  33  44  1   
 67  34  35  1   
 68  36  37  1   
 69  36  62  1   
 70  36  63  1   
 71  37  38  am  
 72  38  39  2   
 73  38  40  1   
 74  40  41  1   
 75  40  64  1   
 76  40  65  1   
@<TRIPOS>SUBSTRUCTURE
  1 LIG   1 GROUP 4 **** **** 0
@<TRIPOS>PROPERTY_DATA
index	|	ligand161
Name	|	DAV-CRI-f9b-2
ChemPlp	|	-99.65
MM-GBSA Nwat=0	|	5.6484
STDEV0	|	5.7598
MM-GBSA Nwat=30	|	-40.7865
STDEV30	|	15.6358
MM-GBSA Nwat=60	|	-86.2021
STDEV60	|	12.4905
ST.DEV < 10%	|	N
RMSD LIG < 2	|	
DIST < 5	|	
DIST < 3.5	|	N

# MOE 2019.01 (io_trps.svl 2018.10)

@<TRIPOS>MOLECULE
ligand041
68 72 1 0 0 
SMALL
NO_CHARGES


@<TRIPOS>ATOM
  1 C1      13.0800     6.3200    23.5920 C.3   1 LIG   0.0000 
  2 H2      13.8960     6.2490    23.0180 H     1 LIG   0.0000 
  3 H3      12.3620     6.8040    23.0920 H     1 LIG   0.0000 
  4 H4      13.3030     6.8240    24.4260 H     1 LIG   0.0000 
  5 C5      12.5940     4.9260    23.9550 C.3   1 LIG   0.0000 
  6 C6      12.3060     4.1860    22.6580 C.3   1 LIG   0.0000 
  7 H7      11.6820     4.7330    22.1010 H     1 LIG   0.0000 
  8 H8      13.1630     4.0480    22.1620 H     1 LIG   0.0000 
  9 N9      11.6890     2.8780    22.9270 N.3   1 LIG   0.0000 
 10 C10     11.4960     2.1200    21.6830 C.3   1 LIG   0.0000 
 11 H11     12.3130     2.2020    21.1120 H     1 LIG   0.0000 
 12 H12     10.7060     2.4860    21.1890 H     1 LIG   0.0000 
 13 C13     11.2540     0.6560    22.0130 C.ar  1 LIG   0.0000 
 14 C14     12.3200    -0.0730    22.5280 C.ar  1 LIG   0.0000 
 15 H15     13.2060     0.3690    22.6680 H     1 LIG   0.0000 
 16 C16     12.1550    -1.4170    22.8470 C.ar  1 LIG   0.0000 
 17 H17     12.9230    -1.9410    23.2160 H     1 LIG   0.0000 
 18 C18     10.9220    -2.0320    22.6520 C.ar  1 LIG   0.0000 
 19 H19     10.7980    -2.9980    22.8800 H     1 LIG   0.0000 
 20 C20      9.8640    -1.2900    22.1370 C.ar  1 LIG   0.0000 
 21 C21      8.6310    -1.9060    21.9440 C.ar  1 LIG   0.0000 
 22 H22      8.5080    -2.8710    22.1730 H     1 LIG   0.0000 
 23 C23      7.5720    -1.1660    21.4290 C.ar  1 LIG   0.0000 
 24 C24      6.2310    -1.8500    21.2220 C.3   1 LIG   0.0000 
 25 C25      6.1500    -2.4790    19.8610 C.3   1 LIG   0.0000 
 26 H26      6.8810    -2.3260    19.1950 H     1 LIG   0.0000 
 27 H27      5.2720    -2.5320    19.3860 H     1 LIG   0.0000 
 28 C28      6.4030    -3.3340    21.0690 C.3   1 LIG   0.0000 
 29 N29      5.2000    -4.0780    21.4710 N.3   1 LIG   0.0000 
 30 H30      5.4560    -5.0080    21.7330 H     1 LIG   0.0000 
 31 H31      4.7690    -3.6200    22.2480 H     1 LIG   0.0000 
 32 C32      7.7610     0.1780    21.1170 C.ar  1 LIG   0.0000 
 33 N33      6.6940     0.9180    20.6000 N.pl3 1 LIG   0.0000 
 34 C34      6.2160     2.0970    21.3410 C.3   1 LIG   0.0000 
 35 H35      6.7000     2.9070    21.0100 H     1 LIG   0.0000 
 36 H36      6.4070     1.9680    22.3140 H     1 LIG   0.0000 
 37 C37      4.7200     2.3040    21.1530 C.3   1 LIG   0.0000 
 38 H38      4.2280     1.6220    21.6950 H     1 LIG   0.0000 
 39 H39      4.4770     3.2200    21.4700 H     1 LIG   0.0000 
 40 N40      4.3260     2.1670    19.7420 N.3   1 LIG   0.0000 
 41 C41      2.8680     2.3490    19.6860 C.3   1 LIG   0.0000 
 42 H42      2.5580     2.2640    18.7400 H     1 LIG   0.0000 
 43 H43      2.4230     1.6520    20.2480 H     1 LIG   0.0000 
 44 H44      2.6320     3.2570    20.0340 H     1 LIG   0.0000 
 45 C45      4.6000     0.7920    19.2960 C.3   1 LIG   0.0000 
 46 H46      4.2680     0.6820    18.3590 H     1 LIG   0.0000 
 47 H47      4.1180     0.1540    19.8970 H     1 LIG   0.0000 
 48 C48      6.0880     0.4770    19.3330 C.3   1 LIG   0.0000 
 49 H49      6.2160    -0.5100    19.2370 H     1 LIG   0.0000 
 50 H50      6.5400     0.9470    18.5750 H     1 LIG   0.0000 
 51 N51      8.9640     0.7370    21.3180 N.ar  1 LIG   0.0000 
 52 C52     10.0120     0.0560    21.8120 C.ar  1 LIG   0.0000 
 53 C53     10.3540     3.1240    23.4960 C.3   1 LIG   0.0000 
 54 H54      9.8880     2.2480    23.6210 H     1 LIG   0.0000 
 55 H55      9.8310     3.6920    22.8600 H     1 LIG   0.0000 
 56 C56     10.4350     3.8340    24.8390 C.3   1 LIG   0.0000 
 57 H57      9.5300     4.1880    25.0740 H     1 LIG   0.0000 
 58 H58     10.7290     3.1800    25.5350 H     1 LIG   0.0000 
 59 N59     11.3910     4.9530    24.8030 N.am  1 LIG   0.0000 
 60 C60     11.1360     6.0690    25.6090 C.2   1 LIG   0.0000 
 61 O61     10.1570     6.0980    26.3020 O.2   1 LIG   0.0000 
 62 C62     12.1000     7.2450    25.6050 C.3   1 LIG   0.0000 
 63 H63     12.8690     7.0430    24.9990 H     1 LIG   0.0000 
 64 H64     11.6260     8.0630    25.2800 H     1 LIG   0.0000 
 65 CL65    12.7020     7.5240    27.2560 Cl    1 LIG   0.0000 
 66 H66     13.3230     4.4480    24.4440 H     1 LIG   0.0000 
 67 H67      5.4080    -1.4820    21.6550 H     1 LIG   0.0000 
 68 H68      7.3050    -3.7430    21.2050 H     1 LIG   0.0000 
@<TRIPOS>BOND
  1   1   2  1   
  2   1   3  1   
  3   1   4  1   
  4   1   5  1   
  5   5   6  1   
  6   5  59  1   
  7   5  66  1   
  8   6   7  1   
  9   6   8  1   
 10   6   9  1   
 11   9  10  1   
 12   9  53  1   
 13  10  11  1   
 14  10  12  1   
 15  10  13  1   
 16  13  14  ar  
 17  13  52  ar  
 18  14  15  1   
 19  14  16  ar  
 20  16  17  1   
 21  16  18  ar  
 22  18  19  1   
 23  18  20  ar  
 24  20  21  ar  
 25  20  52  ar  
 26  21  22  1   
 27  21  23  ar  
 28  23  24  1   
 29  23  32  ar  
 30  24  25  1   
 31  24  28  1   
 32  24  67  1   
 33  25  26  1   
 34  25  27  1   
 35  25  28  1   
 36  28  29  1   
 37  28  68  1   
 38  29  30  1   
 39  29  31  1   
 40  32  33  1   
 41  32  51  ar  
 42  33  34  1   
 43  33  48  1   
 44  34  35  1   
 45  34  36  1   
 46  34  37  1   
 47  37  38  1   
 48  37  39  1   
 49  37  40  1   
 50  40  41  1   
 51  40  45  1   
 52  41  42  1   
 53  41  43  1   
 54  41  44  1   
 55  45  46  1   
 56  45  47  1   
 57  45  48  1   
 58  48  49  1   
 59  48  50  1   
 60  51  52  ar  
 61  53  54  1   
 62  53  55  1   
 63  53  56  1   
 64  56  57  1   
 65  56  58  1   
 66  56  59  1   
 67  59  60  am  
 68  60  61  2   
 69  60  62  1   
 70  62  63  1   
 71  62  64  1   
 72  62  65  1   
@<TRIPOS>SUBSTRUCTURE
  1 LIG  51 GROUP 4 **** **** 0
@<TRIPOS>PROPERTY_DATA
index	|	ligand041
Name	|	BOG-INS-01a-1
ChemPlp	|	-99.9216
MM-GBSA Nwat=0	|	-24.0869
STDEV0	|	3.2429
MM-GBSA Nwat=30	|	-40.1332
STDEV30	|	5.8316
MM-GBSA Nwat=60	|	-56.2179
STDEV60	|	5.8431
ST.DEV < 10%	|	N
RMSD LIG < 2	|	
DIST < 5	|	
DIST < 3.5	|	N

# MOE 2019.01 (io_trps.svl 2018.10)

@<TRIPOS>MOLECULE
ligand432
42 44 1 0 0 
SMALL
USER_CHARGES


@<TRIPOS>ATOM
  1 N1       6.1910     0.6910    18.6160 N.4   1 LIG   1.0000 
  2 H2       6.5650     1.6000    18.4350 H     1 LIG   0.0000 
  3 H3       6.1610     0.1670    17.7650 H     1 LIG   0.0000 
  4 H4       5.2660     0.7780    18.9860 H     1 LIG   0.0000 
  5 C5       7.0440    -0.0050    19.5900 C.ar  1 LIG   0.0000 
  6 C6       6.6310    -1.1800    20.2160 C.ar  1 LIG   0.0000 
  7 H7       5.7290    -1.5480    19.9900 H     1 LIG   0.0000 
  8 C8       7.4140    -1.8690    21.1440 C.ar  1 LIG   0.0000 
  9 C9       8.6610    -1.3480    21.4480 C.ar  1 LIG   0.0000 
 10 C10      9.0420    -0.1690    20.8050 C.ar  1 LIG   0.0000 
 11 H11      9.9380     0.2210    21.0160 H     1 LIG   0.0000 
 12 N12      8.2600     0.4640    19.9160 N.ar  1 LIG   0.0000 
 13 N13      9.4460    -2.0460    22.3820 N.pl3 1 LIG   0.0000 
 14 C14     10.9130    -2.0330    22.2830 C.3   1 LIG   0.0000 
 15 H15     11.1820    -2.0020    21.3200 H     1 LIG   0.0000 
 16 H16     11.2830    -2.8600    22.7060 H     1 LIG   0.0000 
 17 C17     11.4580    -0.8090    23.0010 C.ar  1 LIG   0.0000 
 18 C18     10.6130    -0.0800    23.8310 C.ar  1 LIG   0.0000 
 19 H19      9.6600    -0.3590    23.9540 H     1 LIG   0.0000 
 20 C20     11.1090     1.0400    24.4890 C.ar  1 LIG   0.0000 
 21 O21     10.2940     1.7520    25.2950 O.3   1 LIG   0.0000 
 22 H22     10.4270     1.7300    26.2860 H     1 LIG   0.0000 
 23 C23     12.4310     1.4410    24.3290 C.ar  1 LIG   0.0000 
 24 H24     12.7780     2.2480    24.8070 H     1 LIG   0.0000 
 25 C25     13.2660     0.7030    23.4960 C.ar  1 LIG   0.0000 
 26 H26     14.2180     0.9810    23.3740 H     1 LIG   0.0000 
 27 C27     12.7830    -0.4200    22.8320 C.ar  1 LIG   0.0000 
 28 O28     13.6000    -1.1300    22.0250 O.3   1 LIG   0.0000 
 29 H29     14.3080    -1.7160    22.4200 H     1 LIG   0.0000 
 30 C30      8.8590    -2.8170    23.4920 C.3   1 LIG   0.0000 
 31 H31      8.7700    -2.2150    24.2850 H     1 LIG   0.0000 
 32 H32      9.4750    -3.5730    23.7150 H     1 LIG   0.0000 
 33 C33      7.4870    -3.3900    23.1590 C.3   1 LIG   0.0000 
 34 H34      7.5280    -4.3850    23.2460 H     1 LIG   0.0000 
 35 H35      6.8230    -3.0250    23.8120 H     1 LIG   0.0000 
 36 N36      7.0360    -3.0560    21.7960 N.am  1 LIG   0.0000 
 37 C37      6.2000    -3.9840    21.1640 C.2   1 LIG   0.0000 
 38 O38      5.7980    -3.7710    20.0530 O.2   1 LIG   0.0000 
 39 C39      5.8020    -5.2620    21.8840 C.3   1 LIG   0.0000 
 40 H40      5.3100    -5.0320    22.7230 H     1 LIG   0.0000 
 41 H41      5.2110    -5.8090    21.2900 H     1 LIG   0.0000 
 42 CL42     7.2630    -6.1950    22.2890 Cl    1 LIG   0.0000 
@<TRIPOS>BOND
  1   1   2  1   
  2   1   3  1   
  3   1   4  1   
  4   1   5  1   
  5   5   6  ar  
  6   5  12  ar  
  7   6   7  1   
  8   6   8  ar  
  9   8   9  ar  
 10   8  36  1   
 11   9  10  ar  
 12   9  13  1   
 13  10  11  1   
 14  10  12  ar  
 15  13  14  1   
 16  13  30  1   
 17  14  15  1   
 18  14  16  1   
 19  14  17  1   
 20  17  18  ar  
 21  17  27  ar  
 22  18  19  1   
 23  18  20  ar  
 24  20  21  1   
 25  20  23  ar  
 26  21  22  1   
 27  23  24  1   
 28  23  25  ar  
 29  25  26  1   
 30  25  27  ar  
 31  27  28  1   
 32  28  29  1   
 33  30  31  1   
 34  30  32  1   
 35  30  33  1   
 36  33  34  1   
 37  33  35  1   
 38  33  36  1   
 39  36  37  am  
 40  37  38  2   
 41  37  39  1   
 42  39  40  1   
 43  39  41  1   
 44  39  42  1   
@<TRIPOS>SUBSTRUCTURE
  1 LIG   9 GROUP 4 **** **** 0
@<TRIPOS>PROPERTY_DATA
index	|	ligand432
Name	|	NEH-REV-107-1
ChemPlp	|	-93.3756
MM-GBSA Nwat=0	|	-20.7979
STDEV0	|	3.7954
MM-GBSA Nwat=30	|	-39.9903
STDEV30	|	4.334
MM-GBSA Nwat=60	|	-42.7332
STDEV60	|	3.9457
ST.DEV < 10%	|	N
RMSD LIG < 2	|	
DIST < 5	|	
DIST < 3.5	|	N

# MOE 2019.01 (io_trps.svl 2018.10)

@<TRIPOS>MOLECULE
ligand368
64 66 1 0 0 
SMALL
USER_CHARGES


@<TRIPOS>ATOM
  1 C1      13.6520    -1.1050    22.2930 C.3   1 LIG   0.0000 
  2 C5      12.4470    -0.2530    22.6530 C.3   1 LIG   0.0000 
  3 C6      12.8990     1.0890    23.2050 C.3   1 LIG   0.0000 
  4 C9      11.6800     1.9280    23.5500 C.3   1 LIG   0.0000 
  5 C10     12.1150     3.2760    24.0960 C.3   1 LIG   0.0000 
  6 N13     10.9290     4.1020    24.3680 N.3   1 LIG   0.0000 
  7 C16     11.0540     5.3860    23.6640 C.3   1 LIG   0.0000 
  8 N19      9.9600     5.5210    22.6920 N.pl3 1 LIG   0.0000 
  9 C21      8.8870     6.3780    22.9610 C.ar  1 LIG   0.0000 
 10 C22      7.8960     6.5120    21.9930 C.ar  1 LIG   0.0000 
 11 C24      6.8220     7.3610    22.2450 C.ar  1 LIG   0.0000 
 12 C26      6.7500     8.0580    23.4460 C.ar  1 LIG   0.0000 
 13 C27      5.5720     8.9830    23.7110 C.1   1 LIG   0.0000 
 14 N28      4.6890     9.6770    23.9100 N.1   1 LIG   0.0000 
 15 C29      7.7730     7.8800    24.3720 C.ar  1 LIG   0.0000 
 16 N31      8.8010     7.0580    24.1140 N.ar  1 LIG   0.0000 
 17 C32     10.8040     1.1920    24.5520 C.3   1 LIG   0.0000 
 18 C35     10.3290    -0.1430    23.9970 C.3   1 LIG   0.0000 
 19 C36      9.4220     0.0360    22.7880 C.3   1 LIG   0.0000 
 20 N39      8.4220    -1.0400    22.7620 N.4   1 LIG   1.0000 
 21 C41      7.4950    -0.7390    21.6580 C.3   1 LIG   0.0000 
 22 C44      6.4320    -1.8160    21.5000 C.3   1 LIG   0.0000 
 23 N47      7.0170    -3.1650    21.5590 N.am  1 LIG   0.0000 
 24 C48      6.4280    -4.1810    20.7990 C.2   1 LIG   0.0000 
 25 O49      5.4680    -3.9430    20.1190 O.2   1 LIG   0.0000 
 26 C50      7.0040    -5.5880    20.8340 C.3   1 LIG   0.0000 
 27 CL53     6.4250    -6.4290    22.2920 Cl    1 LIG   0.0000 
 28 C54      8.2010    -3.4810    22.3740 C.3   1 LIG   0.0000 
 29 C57      9.1440    -2.2920    22.4810 C.3   1 LIG   0.0000 
 30 C60     11.5630    -0.9680    23.6630 C.3   1 LIG   0.0000 
 31 H22      7.9540     6.0080    21.1320 H     1 LIG   0.0000 
 32 H24      6.1010     7.4690    21.5610 H     1 LIG   0.0000 
 33 H29      7.7410     8.3710    25.2420 H     1 LIG   0.0000 
 34 H11     14.2190    -0.6170    21.6290 H     1 LIG   0.0000 
 35 H12     14.1870    -1.2890    23.1170 H     1 LIG   0.0000 
 36 H13     13.3420    -1.9690    21.8960 H     1 LIG   0.0000 
 37 H5      11.9140    -0.0910    21.8220 H     1 LIG   0.0000 
 38 H61     13.4480     1.5650    22.5180 H     1 LIG   0.0000 
 39 H62     13.4480     0.9440    24.0280 H     1 LIG   0.0000 
 40 H9      11.1500     2.0790    22.7150 H     1 LIG   0.0000 
 41 H101    12.6290     3.1420    24.9430 H     1 LIG   0.0000 
 42 H102    12.6950     3.7370    23.4240 H     1 LIG   0.0000 
 43 H161    11.0070     6.1340    24.3250 H     1 LIG   0.0000 
 44 H162    11.9310     5.4200    23.1850 H     1 LIG   0.0000 
 45 H321    11.3300     1.0280    25.3860 H     1 LIG   0.0000 
 46 H322    10.0070     1.7570    24.7650 H     1 LIG   0.0000 
 47 H35      9.8150    -0.6180    24.7110 H     1 LIG   0.0000 
 48 H361     8.9600     0.9210    22.8460 H     1 LIG   0.0000 
 49 H362     9.9710     0.0020    21.9520 H     1 LIG   0.0000 
 50 H39      7.9340    -1.0960    23.6330 H     1 LIG   0.0000 
 51 H411     8.0160    -0.6720    20.8070 H     1 LIG   0.0000 
 52 H412     7.0450     0.1350    21.8420 H     1 LIG   0.0000 
 53 H441     5.7610    -1.7200    22.2350 H     1 LIG   0.0000 
 54 H442     5.9780    -1.6970    20.6170 H     1 LIG   0.0000 
 55 H501     6.7090    -6.0890    20.0210 H     1 LIG   0.0000 
 56 H502     8.0020    -5.5380    20.8520 H     1 LIG   0.0000 
 57 H541     8.6890    -4.2450    21.9540 H     1 LIG   0.0000 
 58 H542     7.9020    -3.7410    23.2930 H     1 LIG   0.0000 
 59 H571     9.7960    -2.4610    23.2200 H     1 LIG   0.0000 
 60 H572     9.6380    -2.1920    21.6170 H     1 LIG   0.0000 
 61 H601    12.0860    -1.1250    24.5000 H     1 LIG   0.0000 
 62 H602    11.2740    -1.8450    23.2800 H     1 LIG   0.0000 
 63 H13     10.1110     3.6240    24.0480 H     1 LIG   0.0000 
 64 H19      9.9810     4.9990    21.8390 H     1 LIG   0.0000 
@<TRIPOS>BOND
  1   1   2  1   
  2   1  34  1   
  3   1  35  1   
  4   1  36  1   
  5   2   3  1   
  6   2  30  1   
  7   2  37  1   
  8   3   4  1   
  9   3  38  1   
 10   3  39  1   
 11   4   5  1   
 12   4  17  1   
 13   4  40  1   
 14   5   6  1   
 15   5  41  1   
 16   5  42  1   
 17   6   7  1   
 18   6  63  1   
 19   7   8  1   
 20   7  43  1   
 21   7  44  1   
 22   8   9  1   
 23   8  64  1   
 24   9  10  ar  
 25   9  16  ar  
 26  10  11  ar  
 27  10  31  1   
 28  11  12  ar  
 29  11  32  1   
 30  12  13  1   
 31  12  15  ar  
 32  13  14  3   
 33  15  16  ar  
 34  15  33  1   
 35  17  18  1   
 36  17  45  1   
 37  17  46  1   
 38  18  19  1   
 39  18  30  1   
 40  18  47  1   
 41  19  20  1   
 42  19  48  1   
 43  19  49  1   
 44  20  21  1   
 45  20  29  1   
 46  20  50  1   
 47  21  22  1   
 48  21  51  1   
 49  21  52  1   
 50  22  23  1   
 51  22  53  1   
 52  22  54  1   
 53  23  24  am  
 54  23  28  1   
 55  24  25  2   
 56  24  26  1   
 57  26  27  1   
 58  26  55  1   
 59  26  56  1   
 60  28  29  1   
 61  28  57  1   
 62  28  58  1   
 63  29  59  1   
 64  29  60  1   
 65  30  61  1   
 66  30  62  1   
@<TRIPOS>SUBSTRUCTURE
  1 LIG  19 GROUP 4 **** **** 0
@<TRIPOS>PROPERTY_DATA
index	|	ligand368
Name	|	MAK-UNK-af8-24
ChemPlp	|	-100.147
MM-GBSA Nwat=0	|	-14.1398
STDEV0	|	3.0856
MM-GBSA Nwat=30	|	-39.9537
STDEV30	|	10.6401
MM-GBSA Nwat=60	|	-68.6801
STDEV60	|	7.4341
ST.DEV < 10%	|	N
RMSD LIG < 2	|	
DIST < 5	|	
DIST < 3.5	|	N

# MOE 2019.01 (io_trps.svl 2018.10)

@<TRIPOS>MOLECULE
ligand294
66 69 1 0 0 
SMALL
USER_CHARGES


@<TRIPOS>ATOM
  1 C1      10.0880     2.6440    22.9950 C.3   1 LIG   0.0000 
  2 C5      11.3260     3.2320    23.6520 C.3   1 LIG   0.0000 
  3 C6      12.3830     3.5000    22.5930 C.3   1 LIG   0.0000 
  4 O9      13.5190     4.0990    23.1980 O.3   1 LIG   0.0000 
  5 C11     10.9610     4.5350    24.3450 C.3   1 LIG   0.0000 
  6 O14      9.9930     5.2270    23.5710 O.3   1 LIG   0.0000 
  7 C15      9.3550     6.2990    24.0900 C.2   1 LIG   0.0000 
  8 C16      9.6080     6.8530    25.3090 C.2   1 LIG   0.0000 
  9 N18      8.7530     7.9050    25.4520 N.pl3 1 LIG   0.0000 
 10 C20      7.9660     8.0230    24.3410 C.ar  1 LIG   0.0000 
 11 C21      6.9620     8.9430    24.0590 C.ar  1 LIG   0.0000 
 12 C23      6.2700     8.8710    22.8540 C.ar  1 LIG   0.0000 
 13 C25      6.5970     7.8700    21.9450 C.ar  1 LIG   0.0000 
 14 F26      5.9320     7.8010    20.7950 F     1 LIG   0.0000 
 15 C27      7.6090     6.9680    22.2610 C.ar  1 LIG   0.0000 
 16 C29      8.3160     7.0220    23.4600 C.ar  1 LIG   0.0000 
 17 C30     11.8730     2.2490    24.6750 C.3   1 LIG   0.0000 
 18 C33     11.8620     0.8480    24.0870 C.ar  1 LIG   0.0000 
 19 C34     12.7490     0.5180    23.0680 C.ar  1 LIG   0.0000 
 20 C36     12.7250    -0.7690    22.5420 C.ar  1 LIG   0.0000 
 21 C38     11.8290    -1.7200    23.0210 C.ar  1 LIG   0.0000 
 22 C40     10.9500    -1.3700    24.0400 C.ar  1 LIG   0.0000 
 23 C41      9.9680    -2.4010    24.5700 C.3   1 LIG   0.0000 
 24 N44      9.4440    -3.1990    23.4520 N.4   1 LIG   1.0000 
 25 C46      8.5450    -4.2120    24.0300 C.3   1 LIG   0.0000 
 26 C49      7.8990    -5.0760    22.9580 C.3   1 LIG   0.0000 
 27 N52      7.3910    -4.2620    21.8420 N.am  1 LIG   0.0000 
 28 C53      6.2450    -4.6980    21.1660 C.2   1 LIG   0.0000 
 29 O54      5.8070    -4.0550    20.2530 O.2   1 LIG   0.0000 
 30 C55      5.5560    -5.9850    21.5900 C.3   1 LIG   0.0000 
 31 CL58     4.4030    -5.6370    22.9010 Cl    1 LIG   0.0000 
 32 C59      8.0310    -3.0060    21.4210 C.3   1 LIG   0.0000 
 33 C62      8.6750    -2.2810    22.5940 C.3   1 LIG   0.0000 
 34 C65     10.9580    -0.0880    24.5800 C.ar  1 LIG   0.0000 
 35 H16     10.2910     6.5470    25.9720 H     1 LIG   0.0000 
 36 H18      8.7080     8.5030    26.2520 H     1 LIG   0.0000 
 37 H21      6.7370     9.6560    24.7230 H     1 LIG   0.0000 
 38 H23      5.5480     9.5300    22.6440 H     1 LIG   0.0000 
 39 H27      7.8380     6.2520    21.6010 H     1 LIG   0.0000 
 40 H34     13.3960     1.1960    22.7200 H     1 LIG   0.0000 
 41 H36     13.3600    -1.0150    21.8090 H     1 LIG   0.0000 
 42 H38     11.8180    -2.6440    22.6370 H     1 LIG   0.0000 
 43 H65     10.3230     0.1580    25.3130 H     1 LIG   0.0000 
 44 H11     10.3280     1.7860    22.5390 H     1 LIG   0.0000 
 45 H12      9.3930     2.4670    23.6920 H     1 LIG   0.0000 
 46 H13      9.7290     3.2900    22.3220 H     1 LIG   0.0000 
 47 H61     12.6500     2.6380    22.1620 H     1 LIG   0.0000 
 48 H62     12.0100     4.1180    21.9000 H     1 LIG   0.0000 
 49 H111    10.5850     4.3370    25.2500 H     1 LIG   0.0000 
 50 H112    11.7790     5.1020    24.4410 H     1 LIG   0.0000 
 51 H301    12.8100     2.5040    24.9140 H     1 LIG   0.0000 
 52 H302    11.3020     2.2710    25.4960 H     1 LIG   0.0000 
 53 H411    10.4340    -3.0030    25.2180 H     1 LIG   0.0000 
 54 H412     9.2120    -1.9360    25.0310 H     1 LIG   0.0000 
 55 H44     10.1870    -3.6300    22.9400 H     1 LIG   0.0000 
 56 H461     7.8260    -3.7490    24.5480 H     1 LIG   0.0000 
 57 H462     9.0730    -4.7990    24.6440 H     1 LIG   0.0000 
 58 H491     8.5790    -5.7200    22.6060 H     1 LIG   0.0000 
 59 H492     7.1380    -5.5830    23.3630 H     1 LIG   0.0000 
 60 H551     5.0660    -6.3730    20.8090 H     1 LIG   0.0000 
 61 H552     6.2400    -6.6390    21.9120 H     1 LIG   0.0000 
 62 H591     7.3390    -2.4100    21.0120 H     1 LIG   0.0000 
 63 H592     8.7360    -3.2130    20.7420 H     1 LIG   0.0000 
 64 H621     9.2910    -1.5780    22.2400 H     1 LIG   0.0000 
 65 H622     7.9570    -1.8520    23.1410 H     1 LIG   0.0000 
 66 H9      14.1610     3.3860    23.4800 H     1 LIG   0.0000 
@<TRIPOS>BOND
  1   1   2  1   
  2   1  44  1   
  3   1  45  1   
  4   1  46  1   
  5   2   3  1   
  6   2   5  1   
  7   2  17  1   
  8   3   4  1   
  9   3  47  1   
 10   3  48  1   
 11   4  66  1   
 12   5   6  1   
 13   5  49  1   
 14   5  50  1   
 15   6   7  1   
 16   7   8  2   
 17   7  16  1   
 18   8   9  1   
 19   8  35  1   
 20   9  10  1   
 21   9  36  1   
 22  10  11  ar  
 23  10  16  ar  
 24  11  12  ar  
 25  11  37  1   
 26  12  13  ar  
 27  12  38  1   
 28  13  14  1   
 29  13  15  ar  
 30  15  16  ar  
 31  15  39  1   
 32  17  18  1   
 33  17  51  1   
 34  17  52  1   
 35  18  19  ar  
 36  18  34  ar  
 37  19  20  ar  
 38  19  40  1   
 39  20  21  ar  
 40  20  41  1   
 41  21  22  ar  
 42  21  42  1   
 43  22  23  1   
 44  22  34  ar  
 45  23  24  1   
 46  23  53  1   
 47  23  54  1   
 48  24  25  1   
 49  24  33  1   
 50  24  55  1   
 51  25  26  1   
 52  25  56  1   
 53  25  57  1   
 54  26  27  1   
 55  26  58  1   
 56  26  59  1   
 57  27  28  am  
 58  27  32  1   
 59  28  29  2   
 60  28  30  1   
 61  30  31  1   
 62  30  60  1   
 63  30  61  1   
 64  32  33  1   
 65  32  62  1   
 66  32  63  1   
 67  33  64  1   
 68  33  65  1   
 69  34  43  1   
@<TRIPOS>SUBSTRUCTURE
  1 LIG   1 GROUP 4 **** **** 0
@<TRIPOS>PROPERTY_DATA
index	|	ligand294
Name	|	MAK-UNK-176-6
ChemPlp	|	-114.298
MM-GBSA Nwat=0	|	-21.2393
STDEV0	|	3.841
MM-GBSA Nwat=30	|	-39.6278
STDEV30	|	6.3245
MM-GBSA Nwat=60	|	-67.0229
STDEV60	|	6.3599
ST.DEV < 10%	|	N
RMSD LIG < 2	|	
DIST < 5	|	
DIST < 3.5	|	N

# MOE 2019.01 (io_trps.svl 2018.10)

@<TRIPOS>MOLECULE
ligand540
57 60 1 0 0 
SMALL
NO_CHARGES


@<TRIPOS>ATOM
  1 C1      13.8820    -1.3720    21.8730 C.2   1 LIG   0.0000 
  2 H2      14.0920    -1.9060    21.0540 H     1 LIG   0.0000 
  3 H3      14.5650    -1.2790    22.5970 H     1 LIG   0.0000 
  4 C4      12.7220    -0.7990    21.9950 C.2   1 LIG   0.0000 
  5 H5      12.0390    -0.8920    21.2710 H     1 LIG   0.0000 
  6 C6      12.4030     0.0130    23.2400 C.2   1 LIG   0.0000 
  7 O7      13.2700     0.2620    24.0320 O.2   1 LIG   0.0000 
  8 N8      11.0990     0.4710    23.4620 N.am  1 LIG   0.0000 
  9 C9      10.0330     0.1700    22.4950 C.3   1 LIG   0.0000 
 10 H10      9.5290    -0.6320    22.8170 H     1 LIG   0.0000 
 11 H11     10.4540    -0.0340    21.6110 H     1 LIG   0.0000 
 12 C12      9.0450     1.3210    22.3090 C.ar  1 LIG   0.0000 
 13 C13      8.1300     1.3140    21.2560 C.ar  1 LIG   0.0000 
 14 O14      8.0910     0.2970    20.3690 O.3   1 LIG   0.0000 
 15 C15      6.9170     0.0660    19.6050 C.3   1 LIG   0.0000 
 16 H16      7.1120    -0.6020    18.8860 H     1 LIG   0.0000 
 17 H17      6.6160     0.9240    19.1890 H     1 LIG   0.0000 
 18 C18      5.8200    -0.4700    20.5100 C.3   1 LIG   0.0000 
 19 H19      5.7530     0.1020    21.3280 H     1 LIG   0.0000 
 20 H20      4.9480    -0.4560    20.0220 H     1 LIG   0.0000 
 21 N21      6.1400    -1.8520    20.9030 N.3   1 LIG   0.0000 
 22 C22      5.2050    -2.3670    21.9150 C.3   1 LIG   0.0000 
 23 H23      4.2780    -2.3570    21.5410 H     1 LIG   0.0000 
 24 H24      5.2440    -1.7840    22.7260 H     1 LIG   0.0000 
 25 C25      5.5740    -3.7900    22.3030 C.3   1 LIG   0.0000 
 26 H26      6.4810    -3.7920    22.7230 H     1 LIG   0.0000 
 27 H27      4.9030    -4.1370    22.9580 H     1 LIG   0.0000 
 28 O28      5.5860    -4.6280    21.1560 O.3   1 LIG   0.0000 
 29 C29      6.4960    -4.1690    20.1670 C.3   1 LIG   0.0000 
 30 H30      6.4510    -4.7730    19.3710 H     1 LIG   0.0000 
 31 H31      7.4230    -4.1780    20.5410 H     1 LIG   0.0000 
 32 C32      6.1420    -2.7530    19.7410 C.3   1 LIG   0.0000 
 33 H33      6.8150    -2.4310    19.0760 H     1 LIG   0.0000 
 34 H34      5.2330    -2.7520    19.3220 H     1 LIG   0.0000 
 35 C35      7.2210     2.3520    21.0750 C.ar  1 LIG   0.0000 
 36 H36      6.5730     2.3280    20.3150 H     1 LIG   0.0000 
 37 C37      7.2230     3.4230    21.9620 C.ar  1 LIG   0.0000 
 38 H38      6.5720     4.1720    21.8380 H     1 LIG   0.0000 
 39 C39      8.1250     3.4560    23.0180 C.ar  1 LIG   0.0000 
 40 H40      8.1270     4.2260    23.6570 H     1 LIG   0.0000 
 41 C41      9.0260     2.4080    23.1790 C.ar  1 LIG   0.0000 
 42 C42      9.9750     2.5170    24.3680 C.3   1 LIG   0.0000 
 43 C43     11.0350     3.5500    24.0200 C.ar  1 LIG   0.0000 
 44 C44     11.9520     3.2890    23.0070 C.ar  1 LIG   0.0000 
 45 H45     11.9200     2.4250    22.5060 H     1 LIG   0.0000 
 46 C46     12.9150     4.2460    22.7020 C.ar  1 LIG   0.0000 
 47 H47     13.5770     4.0650    21.9750 H     1 LIG   0.0000 
 48 C48     12.9680     5.4510    23.3940 C.ar  1 LIG   0.0000 
 49 H49     13.6620     6.1350    23.1700 H     1 LIG   0.0000 
 50 C50     12.0410     5.6920    24.4040 C.ar  1 LIG   0.0000 
 51 CL51    12.1020     7.2310    25.2960 Cl    1 LIG   0.0000 
 52 C52     11.0700     4.7490    24.7250 C.ar  1 LIG   0.0000 
 53 H53     10.4080     4.9300    25.4520 H     1 LIG   0.0000 
 54 C54     10.7900     1.2640    24.6640 C.3   1 LIG   0.0000 
 55 H55     11.6510     1.5390    25.0920 H     1 LIG   0.0000 
 56 H56     10.2710     0.6900    25.2970 H     1 LIG   0.0000 
 57 H57      9.4720     2.8020    25.1840 H     1 LIG   0.0000 
@<TRIPOS>BOND
  1   1   2  1   
  2   1   3  1   
  3   1   4  2   
  4   4   5  1   
  5   4   6  1   
  6   6   7  2   
  7   6   8  am  
  8   8   9  1   
  9   8  54  1   
 10   9  10  1   
 11   9  11  1   
 12   9  12  1   
 13  12  13  ar  
 14  12  41  ar  
 15  13  14  1   
 16  13  35  ar  
 17  14  15  1   
 18  15  16  1   
 19  15  17  1   
 20  15  18  1   
 21  18  19  1   
 22  18  20  1   
 23  18  21  1   
 24  21  22  1   
 25  21  32  1   
 26  22  23  1   
 27  22  24  1   
 28  22  25  1   
 29  25  26  1   
 30  25  27  1   
 31  25  28  1   
 32  28  29  1   
 33  29  30  1   
 34  29  31  1   
 35  29  32  1   
 36  32  33  1   
 37  32  34  1   
 38  35  36  1   
 39  35  37  ar  
 40  37  38  1   
 41  37  39  ar  
 42  39  40  1   
 43  39  41  ar  
 44  41  42  1   
 45  42  43  1   
 46  42  54  1   
 47  42  57  1   
 48  43  44  ar  
 49  43  52  ar  
 50  44  45  1   
 51  44  46  ar  
 52  46  47  1   
 53  46  48  ar  
 54  48  49  1   
 55  48  50  ar  
 56  50  51  1   
 57  50  52  ar  
 58  52  53  1   
 59  54  55  1   
 60  54  56  1   
@<TRIPOS>SUBSTRUCTURE
  1 LIG  12 GROUP 4 **** **** 0
@<TRIPOS>PROPERTY_DATA
index	|	ligand540
Name	|	SEA-TRI-078-1
ChemPlp	|	-92.6853
MM-GBSA Nwat=0	|	-22.5614
STDEV0	|	3.3625
MM-GBSA Nwat=30	|	-39.0333
STDEV30	|	5.0148
MM-GBSA Nwat=60	|	-45.3416
STDEV60	|	5.2596
ST.DEV < 10%	|	N
RMSD LIG < 2	|	
DIST < 5	|	
DIST < 3.5	|	N

# MOE 2019.01 (io_trps.svl 2018.10)

@<TRIPOS>MOLECULE
ligand584
44 45 1 0 0 
SMALL
NO_CHARGES


@<TRIPOS>ATOM
  1 C1      13.7970    -1.4320    21.3730 C.3   1 LIG   0.0000 
  2 H2      14.6000    -0.8690    21.1780 H     1 LIG   0.0000 
  3 H3      14.0910    -2.3490    21.6450 H     1 LIG   0.0000 
  4 H4      13.2270    -1.4950    20.5540 H     1 LIG   0.0000 
  5 C5      12.9960    -0.8010    22.5000 C.ar  1 LIG   0.0000 
  6 C6      13.4360     0.3840    23.0810 C.ar  1 LIG   0.0000 
  7 H7      14.2750     0.8240    22.7620 H     1 LIG   0.0000 
  8 C8      12.6910     0.9470    24.1120 C.ar  1 LIG   0.0000 
  9 H9      13.0000     1.7990    24.5360 H     1 LIG   0.0000 
 10 C10     11.5220     0.3410    24.5620 C.ar  1 LIG   0.0000 
 11 H11     10.9920     0.7520    25.3040 H     1 LIG   0.0000 
 12 C12     11.1010    -0.8440    23.9680 C.ar  1 LIG   0.0000 
 13 C13      9.8250    -1.5130    24.4530 C.3   1 LIG   0.0000 
 14 H14      9.9950    -1.9560    25.3330 H     1 LIG   0.0000 
 15 H15      9.1070    -0.8250    24.5580 H     1 LIG   0.0000 
 16 N16      9.3970    -2.5210    23.4720 N.3   1 LIG   0.0000 
 17 C17      8.4620    -1.8580    22.5480 C.3   1 LIG   0.0000 
 18 H18      8.9280    -1.0870    22.1150 H     1 LIG   0.0000 
 19 H19      7.6760    -1.5240    23.0680 H     1 LIG   0.0000 
 20 C20      7.9660    -2.8040    21.4640 C.3   1 LIG   0.0000 
 21 H21      7.1740    -2.3940    21.0120 H     1 LIG   0.0000 
 22 H22      8.6970    -2.9440    20.7960 H     1 LIG   0.0000 
 23 N23      7.5750    -4.1080    22.0240 N.am  1 LIG   0.0000 
 24 C24      6.5270    -4.8130    21.4200 C.2   1 LIG   0.0000 
 25 O25      5.9680    -4.3530    20.4620 O.2   1 LIG   0.0000 
 26 C26      6.0960    -6.1600    21.9780 C.3   1 LIG   0.0000 
 27 H27      5.8390    -6.7650    21.2240 H     1 LIG   0.0000 
 28 H28      6.8530    -6.5660    22.4890 H     1 LIG   0.0000 
 29 CL29     4.7020    -5.9350    23.0610 Cl    1 LIG   0.0000 
 30 C30      8.2410    -4.6970    23.1970 C.3   1 LIG   0.0000 
 31 H31      9.0320    -5.2260    22.8900 H     1 LIG   0.0000 
 32 H32      7.5970    -5.3010    23.6670 H     1 LIG   0.0000 
 33 C33      8.7100    -3.6230    24.1660 C.3   1 LIG   0.0000 
 34 C34      9.6150    -4.2870    25.1920 C.3   1 LIG   0.0000 
 35 H35     10.3700    -4.7440    24.7240 H     1 LIG   0.0000 
 36 H36      9.9790    -3.5930    25.8140 H     1 LIG   0.0000 
 37 C37      8.8170    -5.3090    25.9850 C.2   1 LIG   0.0000 
 38 N38      9.4070    -6.4800    26.3820 N.am  1 LIG   0.0000 
 39 H39     10.3630    -6.6620    26.1510 H     1 LIG   0.0000 
 40 H40      8.8820    -7.1530    26.9030 H     1 LIG   0.0000 
 41 O41      7.6700    -5.0910    26.2620 O.2   1 LIG   0.0000 
 42 C42     11.8310    -1.4240    22.9360 C.ar  1 LIG   0.0000 
 43 H43     11.5220    -2.2760    22.5130 H     1 LIG   0.0000 
 44 H44      7.9120    -3.2510    24.6400 H     1 LIG   0.0000 
@<TRIPOS>BOND
  1   1   2  1   
  2   1   3  1   
  3   1   4  1   
  4   1   5  1   
  5   5   6  ar  
  6   5  42  ar  
  7   6   7  1   
  8   6   8  ar  
  9   8   9  1   
 10   8  10  ar  
 11  10  11  1   
 12  10  12  ar  
 13  12  13  1   
 14  12  42  ar  
 15  13  14  1   
 16  13  15  1   
 17  13  16  1   
 18  16  17  1   
 19  16  33  1   
 20  17  18  1   
 21  17  19  1   
 22  17  20  1   
 23  20  21  1   
 24  20  22  1   
 25  20  23  1   
 26  23  24  am  
 27  23  30  1   
 28  24  25  2   
 29  24  26  1   
 30  26  27  1   
 31  26  28  1   
 32  26  29  1   
 33  30  31  1   
 34  30  32  1   
 35  30  33  1   
 36  33  34  1   
 37  33  44  1   
 38  34  35  1   
 39  34  36  1   
 40  34  37  1   
 41  37  38  am  
 42  37  41  2   
 43  38  39  1   
 44  38  40  1   
 45  42  43  1   
@<TRIPOS>SUBSTRUCTURE
  1 LIG  16 GROUP 4 **** **** 0
@<TRIPOS>PROPERTY_DATA
index	|	ligand584
Name	|	STU-CHA-0be-1
ChemPlp	|	-94.701
MM-GBSA Nwat=0	|	-24.547
STDEV0	|	2.2526
MM-GBSA Nwat=30	|	-38.811
STDEV30	|	4.0421
MM-GBSA Nwat=60	|	-40.9031
STDEV60	|	4.1429
ST.DEV < 10%	|	N
RMSD LIG < 2	|	
DIST < 5	|	
DIST < 3.5	|	N

# MOE 2019.01 (io_trps.svl 2018.10)

@<TRIPOS>MOLECULE
ligand284
53 55 1 0 0 
SMALL
NO_CHARGES


@<TRIPOS>ATOM
  1 C1       1.5380     3.6230    20.4620 C.2   1 LIG   0.0000 
  2 C4       2.1220     2.9320    19.5280 C.2   1 LIG   0.0000 
  3 C6       3.4000     2.1690    19.8350 C.2   1 LIG   0.0000 
  4 O7       3.8840     2.2250    20.9320 O.2   1 LIG   0.0000 
  5 N8       4.0000     1.4160    18.8600 N.am  1 LIG   0.0000 
  6 C10      5.1770     0.7140    19.1420 C.ar  1 LIG   0.0000 
  7 C11      5.2540    -0.0710    20.2880 C.ar  1 LIG   0.0000 
  8 C13      6.4320    -0.7620    20.5520 C.ar  1 LIG   0.0000 
  9 C14      6.5160    -1.5810    21.7460 C.2   1 LIG   0.0000 
 10 O15      7.4750    -2.2790    21.9280 O.2   1 LIG   0.0000 
 11 N16      5.5010    -1.5580    22.6650 N.am  1 LIG   0.0000 
 12 C18      5.5860    -2.3880    23.8750 C.3   1 LIG   0.0000 
 13 C21      4.9370    -3.7380    23.6110 C.3   1 LIG   0.0000 
 14 C22      4.8520    -4.5220    24.9100 C.3   1 LIG   0.0000 
 15 C25      3.9230    -5.7110    24.7240 C.ar  1 LIG   0.0000 
 16 C26      3.0560    -5.7450    23.6370 C.ar  1 LIG   0.0000 
 17 C28      2.2070    -6.8340    23.4710 C.ar  1 LIG   0.0000 
 18 C30      2.2300    -7.8800    24.3880 C.ar  1 LIG   0.0000 
 19 C32      3.1010    -7.8360    25.4700 C.ar  1 LIG   0.0000 
 20 C34      3.9540    -6.7510    25.6470 C.ar  1 LIG   0.0000 
 21 C36      5.7720    -4.5130    22.6050 C.ar  1 LIG   0.0000 
 22 C37      6.6970    -5.4340    23.0860 C.ar  1 LIG   0.0000 
 23 C39      7.4650    -6.1470    22.1730 C.ar  1 LIG   0.0000 
 24 C41      7.3000    -5.9320    20.8090 C.ar  1 LIG   0.0000 
 25 C43      6.3590    -4.9970    20.3890 C.ar  1 LIG   0.0000 
 26 N45      5.6270    -4.3180    21.2850 N.ar  1 LIG   0.0000 
 27 C46      7.5200    -0.6760    19.6890 C.ar  1 LIG   0.0000 
 28 C48      7.4400     0.1100    18.5440 C.ar  1 LIG   0.0000 
 29 C50      6.2630     0.8020    18.2790 C.ar  1 LIG   0.0000 
 30 O51      6.1740     1.5680    17.1700 O.3   1 LIG   0.0000 
 31 H11      4.4750    -0.1380    20.9120 H     1 LIG   0.0000 
 32 H46      8.3610    -1.1790    19.8920 H     1 LIG   0.0000 
 33 H48      8.2180     0.1770    17.9200 H     1 LIG   0.0000 
 34 H26      3.0430    -4.9910    22.9790 H     1 LIG   0.0000 
 35 H28      1.5800    -6.8660    22.6920 H     1 LIG   0.0000 
 36 H30      1.6200    -8.6630    24.2680 H     1 LIG   0.0000 
 37 H32      3.1140    -8.5890    26.1270 H     1 LIG   0.0000 
 38 H34      4.5800    -6.7200    26.4260 H     1 LIG   0.0000 
 39 H37      6.8070    -5.5800    24.0700 H     1 LIG   0.0000 
 40 H39      8.1360    -6.8140    22.4960 H     1 LIG   0.0000 
 41 H41      7.8470    -6.4400    20.1430 H     1 LIG   0.0000 
 42 H43      6.2280    -4.8300    19.4120 H     1 LIG   0.0000 
 43 H181     5.1100    -1.9320    24.6270 H     1 LIG   0.0000 
 44 H182     6.5460    -2.5230    24.1200 H     1 LIG   0.0000 
 45 H21      4.0170    -3.5990    23.2440 H     1 LIG   0.0000 
 46 H221     5.7630    -4.8470    25.1640 H     1 LIG   0.0000 
 47 H222     4.4950    -3.9300    25.6340 H     1 LIG   0.0000 
 48 H11      0.6970     4.1250    20.2600 H     1 LIG   0.0000 
 49 H12      1.9300     3.6530    21.3810 H     1 LIG   0.0000 
 50 H4       1.7300     2.9020    18.6090 H     1 LIG   0.0000 
 51 H8       3.5960     1.3690    17.9460 H     1 LIG   0.0000 
 52 H16      4.7020    -0.9770    22.5130 H     1 LIG   0.0000 
 53 H51      5.2860     1.7180    16.7360 H     1 LIG   0.0000 
@<TRIPOS>BOND
  1   1   2  2   
  2   1  48  1   
  3   1  49  1   
  4   2   3  1   
  5   2  50  1   
  6   3   4  2   
  7   3   5  am  
  8   5   6  1   
  9   5  51  1   
 10   6   7  ar  
 11   6  29  ar  
 12   7   8  ar  
 13   7  31  1   
 14   8   9  1   
 15   8  27  ar  
 16   9  10  2   
 17   9  11  am  
 18  11  12  1   
 19  11  52  1   
 20  12  13  1   
 21  12  43  1   
 22  12  44  1   
 23  13  14  1   
 24  13  21  1   
 25  13  45  1   
 26  14  15  1   
 27  14  46  1   
 28  14  47  1   
 29  15  16  ar  
 30  15  20  ar  
 31  16  17  ar  
 32  16  34  1   
 33  17  18  ar  
 34  17  35  1   
 35  18  19  ar  
 36  18  36  1   
 37  19  20  ar  
 38  19  37  1   
 39  20  38  1   
 40  21  22  ar  
 41  21  26  ar  
 42  22  23  ar  
 43  22  39  1   
 44  23  24  ar  
 45  23  40  1   
 46  24  25  ar  
 47  24  41  1   
 48  25  26  ar  
 49  25  42  1   
 50  27  28  ar  
 51  27  32  1   
 52  28  29  ar  
 53  28  33  1   
 54  29  30  1   
 55  30  53  1   
@<TRIPOS>SUBSTRUCTURE
  1 LIG  11 GROUP 4 **** **** 0
@<TRIPOS>PROPERTY_DATA
index	|	ligand284
Name	|	JUA-UNI-bc0-5
ChemPlp	|	-95.6671
MM-GBSA Nwat=0	|	-13.8414
STDEV0	|	2.7048
MM-GBSA Nwat=30	|	-38.422
STDEV30	|	8.4062
MM-GBSA Nwat=60	|	-67.8624
STDEV60	|	10.6524
ST.DEV < 10%	|	N
RMSD LIG < 2	|	
DIST < 5	|	
DIST < 3.5	|	N

# MOE 2019.01 (io_trps.svl 2018.10)

@<TRIPOS>MOLECULE
ligand413
55 58 1 0 0 
SMALL
USER_CHARGES


@<TRIPOS>ATOM
  1 O1      10.1990     2.6110    23.6000 O.2   1 LIG   0.0000 
  2 C2      11.1820     3.1250    24.0580 C.2   1 LIG   0.0000 
  3 N3      12.3490     2.4140    24.1490 N.am  1 LIG   0.0000 
  4 C5      12.3960     1.0870    23.7070 C.ar  1 LIG   0.0000 
  5 C6      13.4300     0.6820    22.8700 C.ar  1 LIG   0.0000 
  6 C8      13.4670    -0.6390    22.4380 C.ar  1 LIG   0.0000 
  7 C10     12.4910    -1.5500    22.8290 C.ar  1 LIG   0.0000 
  8 C12     11.4660    -1.1220    23.6660 C.ar  1 LIG   0.0000 
  9 C13     10.3900    -2.1030    24.1050 C.3   1 LIG   0.0000 
 10 N16      9.6970    -2.6320    22.9210 N.4   1 LIG   1.0000 
 11 C18      8.6370    -3.5300    23.4090 C.3   1 LIG   0.0000 
 12 C21      7.8140    -4.1080    22.2680 C.3   1 LIG   0.0000 
 13 N24      7.4420    -3.0720    21.2920 N.am  1 LIG   0.0000 
 14 C25      6.2190    -3.1940    20.6220 C.2   1 LIG   0.0000 
 15 O26      5.5010    -4.1280    20.8510 O.2   1 LIG   0.0000 
 16 C27      5.8000    -2.1440    19.6070 C.3   1 LIG   0.0000 
 17 CL30     5.8010    -0.5390    20.3780 Cl    1 LIG   0.0000 
 18 C31      8.2980    -1.9110    21.0020 C.3   1 LIG   0.0000 
 19 C34      9.0960    -1.4820    22.2250 C.3   1 LIG   0.0000 
 20 C37     11.4080     0.1940    24.1110 C.ar  1 LIG   0.0000 
 21 C39     11.1330     4.5020    24.5160 C.2   1 LIG   0.0000 
 22 C40     10.0310     5.2900    24.6430 C.2   1 LIG   0.0000 
 23 N42     10.2680     6.5590    25.1010 N.2   1 LIG   0.0000 
 24 C43     11.5220     6.8460    25.3560 C.2   1 LIG   0.0000 
 25 C44     12.0940     8.1560    25.8710 C.3   1 LIG   0.0000 
 26 C47     12.5910     7.9660    27.2950 C.2   1 LIG   0.0000 
 27 C48     12.1010     7.0080    28.2230 C.2   1 LIG   0.0000 
 28 C50     12.6870     7.0080    29.4520 C.2   1 LIG   0.0000 
 29 S52     13.8610     8.2420    29.3680 S.3   1 LIG   0.0000 
 30 C53     13.5980     8.7560    27.7670 C.2   1 LIG   0.0000 
 31 S55     12.4500     5.4610    25.0000 S.3   1 LIG   0.0000 
 32 H6      14.1360     1.3300    22.5840 H     1 LIG   0.0000 
 33 H8      14.2070    -0.9390    21.8360 H     1 LIG   0.0000 
 34 H10     12.5260    -2.4980    22.5130 H     1 LIG   0.0000 
 35 H37     10.6680     0.4940    24.7130 H     1 LIG   0.0000 
 36 H40      9.1120     4.9650    24.4170 H     1 LIG   0.0000 
 37 H48     11.3680     6.3710    27.9860 H     1 LIG   0.0000 
 38 H50     12.4750     6.4160    30.2300 H     1 LIG   0.0000 
 39 H53     14.0790     9.4820    27.2770 H     1 LIG   0.0000 
 40 H131    10.8110    -2.8560    24.6090 H     1 LIG   0.0000 
 41 H132     9.7320    -1.6340    24.6940 H     1 LIG   0.0000 
 42 H16     10.3330    -3.1200    22.3230 H     1 LIG   0.0000 
 43 H181     8.0320    -3.0160    24.0160 H     1 LIG   0.0000 
 44 H182     9.0590    -4.2820    23.9160 H     1 LIG   0.0000 
 45 H211     8.3500    -4.8140    21.8050 H     1 LIG   0.0000 
 46 H212     6.9810    -4.5160    22.6420 H     1 LIG   0.0000 
 47 H271     6.4430    -2.1460    18.8410 H     1 LIG   0.0000 
 48 H272     4.8820    -2.3520    19.2710 H     1 LIG   0.0000 
 49 H311     7.7220    -1.1490    20.7070 H     1 LIG   0.0000 
 50 H312     8.9340    -2.1520    20.2690 H     1 LIG   0.0000 
 51 H341     9.8260    -0.8630    21.9350 H     1 LIG   0.0000 
 52 H342     8.4860    -1.0040    22.8580 H     1 LIG   0.0000 
 53 H441    11.3830     8.8580    25.8560 H     1 LIG   0.0000 
 54 H442    12.8550     8.4390    25.2870 H     1 LIG   0.0000 
 55 H3      13.1680     2.8430    24.5310 H     1 LIG   0.0000 
@<TRIPOS>BOND
  1   1   2  2   
  2   2   3  am  
  3   2  21  1   
  4   3   4  1   
  5   3  55  1   
  6   4   5  ar  
  7   4  20  ar  
  8   5   6  ar  
  9   5  32  1   
 10   6   7  ar  
 11   6  33  1   
 12   7   8  ar  
 13   7  34  1   
 14   8   9  1   
 15   8  20  ar  
 16   9  10  1   
 17   9  40  1   
 18   9  41  1   
 19  10  11  1   
 20  10  19  1   
 21  10  42  1   
 22  11  12  1   
 23  11  43  1   
 24  11  44  1   
 25  12  13  1   
 26  12  45  1   
 27  12  46  1   
 28  13  14  am  
 29  13  18  1   
 30  14  15  2   
 31  14  16  1   
 32  16  17  1   
 33  16  47  1   
 34  16  48  1   
 35  18  19  1   
 36  18  49  1   
 37  18  50  1   
 38  19  51  1   
 39  19  52  1   
 40  20  35  1   
 41  21  22  2   
 42  21  31  1   
 43  22  23  1   
 44  22  36  1   
 45  23  24  2   
 46  24  25  1   
 47  24  31  1   
 48  25  26  1   
 49  25  53  1   
 50  25  54  1   
 51  26  27  1   
 52  26  30  2   
 53  27  28  2   
 54  27  37  1   
 55  28  29  1   
 56  28  38  1   
 57  29  30  1   
 58  30  39  1   
@<TRIPOS>SUBSTRUCTURE
  1 LIG   1 GROUP 4 **** **** 0
@<TRIPOS>PROPERTY_DATA
index	|	ligand413
Name	|	MAK-UNK-e4a-8
ChemPlp	|	-93.3787
MM-GBSA Nwat=0	|	-15.8482
STDEV0	|	3.6407
MM-GBSA Nwat=30	|	-38.3082
STDEV30	|	6.1219
MM-GBSA Nwat=60	|	-56.0969
STDEV60	|	5.8637
ST.DEV < 10%	|	N
RMSD LIG < 2	|	
DIST < 5	|	
DIST < 3.5	|	N

# MOE 2019.01 (io_trps.svl 2018.10)

@<TRIPOS>MOLECULE
ligand373
57 60 1 0 0 
SMALL
USER_CHARGES


@<TRIPOS>ATOM
  1 C1       5.1910    -6.5520    24.0580 C.3   1 LIG   0.0000 
  2 H2       5.3850    -7.2060    24.7890 H     1 LIG   0.0000 
  3 H3       5.5950    -5.6670    24.2870 H     1 LIG   0.0000 
  4 H4       4.2020    -6.4500    23.9550 H     1 LIG   0.0000 
  5 C5       5.7860    -7.0580    22.7540 C.3   1 LIG   0.0000 
  6 H6       6.7760    -7.1600    22.8570 H     1 LIG   0.0000 
  7 H7       5.3820    -7.9440    22.5250 H     1 LIG   0.0000 
  8 N8       5.5020    -6.0970    21.6800 N.pl3 1 LIG   0.0000 
  9 H9       4.8080    -6.3070    20.9910 H     1 LIG   0.0000 
 10 C10      6.2020    -4.8860    21.6200 C.ar  1 LIG   0.0000 
 11 C11      7.3810    -4.7700    22.3500 C.ar  1 LIG   0.0000 
 12 H12      7.7150    -5.5350    22.9010 H     1 LIG   0.0000 
 13 C13      8.0890    -3.5730    22.3000 C.ar  1 LIG   0.0000 
 14 H14      8.9380    -3.4720    22.8180 H     1 LIG   0.0000 
 15 C15      7.6140    -2.5160    21.5300 C.ar  1 LIG   0.0000 
 16 C16      8.3520    -1.2670    21.4780 C.3   1 LIG   0.0000 
 17 N17      7.8840    -0.0980    20.9540 N.2   1 LIG   0.0000 
 18 C18      8.8280     0.8060    21.0840 C.2   1 LIG   0.0000 
 19 H19      8.7680     1.7590    20.7890 H     1 LIG   0.0000 
 20 N20      9.9060     0.2250    21.6910 N.ar  1 LIG   1.0000 
 21 C21     11.1380     0.7110    22.0550 C.ar  1 LIG   0.0000 
 22 C22     11.5110     2.1610    21.7950 C.3   1 LIG   0.0000 
 23 H23     12.3620     2.1980    21.2710 H     1 LIG   0.0000 
 24 H24     10.7800     2.6050    21.2760 H     1 LIG   0.0000 
 25 N25     11.6950     2.8580    23.0770 N.4   1 LIG   1.0000 
 26 H26     12.2210     2.2970    23.7160 H     1 LIG   0.0000 
 27 C27     12.3920     4.1210    22.7840 C.3   1 LIG   0.0000 
 28 H28     11.8480     4.6460    22.1300 H     1 LIG   0.0000 
 29 H29     13.2850     3.9120    22.3840 H     1 LIG   0.0000 
 30 C30     12.6000     4.9580    24.0370 C.3   1 LIG   0.0000 
 31 H31     13.3330     4.5520    24.5820 H     1 LIG   0.0000 
 32 H32     12.8590     5.8860    23.7680 H     1 LIG   0.0000 
 33 N33     11.3770     5.0210    24.8530 N.am  1 LIG   0.0000 
 34 C34     11.1230     6.1860    25.5860 C.2   1 LIG   0.0000 
 35 O35     10.1340     6.2670    26.2610 O.2   1 LIG   0.0000 
 36 C36     12.1000     7.3490    25.5280 C.3   1 LIG   0.0000 
 37 H37     12.8690     7.1090    24.9350 H     1 LIG   0.0000 
 38 H38     11.6360     8.1560    25.1610 H     1 LIG   0.0000 
 39 CL39    12.7000     7.7030    27.1660 Cl    1 LIG   0.0000 
 40 C40     10.4080     3.9140    24.9170 C.3   1 LIG   0.0000 
 41 H41      9.5020     4.2880    25.1130 H     1 LIG   0.0000 
 42 H42     10.6780     3.2900    25.6510 H     1 LIG   0.0000 
 43 C43     10.3510     3.1410    23.6080 C.3   1 LIG   0.0000 
 44 H44      9.8760     2.2750    23.7650 H     1 LIG   0.0000 
 45 H45      9.8450     3.6810    22.9360 H     1 LIG   0.0000 
 46 C46     12.0660    -0.0970    22.6640 C.ar  1 LIG   0.0000 
 47 C47     13.4360     0.4150    23.0770 C.3   1 LIG   0.0000 
 48 H48     13.9560    -0.3280    23.5000 H     1 LIG   0.0000 
 49 H49     13.9260     0.7460    22.2710 H     1 LIG   0.0000 
 50 H50     13.3290     1.1620    23.7330 H     1 LIG   0.0000 
 51 C51     11.7280    -1.4540    22.9120 C.ar  1 LIG   0.0000 
 52 H52     12.3830    -2.0670    23.3540 H     1 LIG   0.0000 
 53 N53     10.5360    -1.8960    22.5510 N.ar  1 LIG   0.0000 
 54 C54      9.6200    -1.0750    21.9440 C.ar  1 LIG   0.0000 
 55 C55      6.4290    -2.6960    20.8240 C.ar  1 LIG   0.0000 
 56 H56      6.0710    -1.9490    20.2650 H     1 LIG   0.0000 
 57 N57      5.7590    -3.8570    20.8820 N.ar  1 LIG   0.0000 
@<TRIPOS>BOND
  1   1   2  1   
  2   1   3  1   
  3   1   4  1   
  4   1   5  1   
  5   5   6  1   
  6   5   7  1   
  7   5   8  1   
  8   8   9  1   
  9   8  10  1   
 10  10  11  ar  
 11  10  57  ar  
 12  11  12  1   
 13  11  13  ar  
 14  13  14  1   
 15  13  15  ar  
 16  15  16  1   
 17  15  55  ar  
 18  16  17  1   
 19  16  54  1   
 20  17  18  2   
 21  18  19  1   
 22  18  20  1   
 23  20  21  ar  
 24  20  54  ar  
 25  21  22  1   
 26  21  46  ar  
 27  22  23  1   
 28  22  24  1   
 29  22  25  1   
 30  25  26  1   
 31  25  27  1   
 32  25  43  1   
 33  27  28  1   
 34  27  29  1   
 35  27  30  1   
 36  30  31  1   
 37  30  32  1   
 38  30  33  1   
 39  33  34  am  
 40  33  40  1   
 41  34  35  2   
 42  34  36  1   
 43  36  37  1   
 44  36  38  1   
 45  36  39  1   
 46  40  41  1   
 47  40  42  1   
 48  40  43  1   
 49  43  44  1   
 50  43  45  1   
 51  46  47  1   
 52  46  51  ar  
 53  47  48  1   
 54  47  49  1   
 55  47  50  1   
 56  51  52  1   
 57  51  53  ar  
 58  53  54  ar  
 59  55  56  1   
 60  55  57  ar  
@<TRIPOS>SUBSTRUCTURE
  1 LIG  20 GROUP 4 **** **** 0
@<TRIPOS>PROPERTY_DATA
index	|	ligand373
Name	|	MAK-UNK-af8-29
ChemPlp	|	-93.382
MM-GBSA Nwat=0	|	-16.6265
STDEV0	|	1.9552
MM-GBSA Nwat=30	|	-37.3943
STDEV30	|	5.5591
MM-GBSA Nwat=60	|	-62.6206
STDEV60	|	4.9457
ST.DEV < 10%	|	N
RMSD LIG < 2	|	
DIST < 5	|	
DIST < 3.5	|	N

# MOE 2019.01 (io_trps.svl 2018.10)

@<TRIPOS>MOLECULE
ligand505
50 52 1 0 0 
SMALL
NO_CHARGES


@<TRIPOS>ATOM
  1 O1       5.3390    -4.5130    21.3550 O.2   1 LIG   0.0000 
  2 C2       6.0970    -3.6410    21.0310 C.2   1 LIG   0.0000 
  3 C3       5.8020    -2.7930    19.8050 C.3   1 LIG   0.0000 
  4 H4       6.5020    -2.9560    19.1100 H     1 LIG   0.0000 
  5 H5       4.9050    -3.0400    19.4380 H     1 LIG   0.0000 
  6 CL6      5.8040    -1.0720    20.2590 Cl    1 LIG   0.0000 
  7 N7       7.2530    -3.4050    21.7820 N.am  1 LIG   0.0000 
  8 C8       7.5190    -4.2380    22.9660 C.3   1 LIG   0.0000 
  9 H9       8.0770    -5.0220    22.6930 H     1 LIG   0.0000 
 10 H10      6.6490    -4.5620    23.3380 H     1 LIG   0.0000 
 11 C11      8.2580    -3.4570    24.0430 C.3   1 LIG   0.0000 
 12 H12      7.6160    -2.8310    24.4870 H     1 LIG   0.0000 
 13 H13      8.6190    -4.0990    24.7190 H     1 LIG   0.0000 
 14 N14      9.3720    -2.6780    23.4800 N.3   1 LIG   0.0000 
 15 C15      9.9840    -1.9440    24.5940 C.3   1 LIG   0.0000 
 16 C16      8.9530    -1.0180    25.2180 C.3   1 LIG   0.0000 
 17 H17      8.0580    -1.1900    24.8060 H     1 LIG   0.0000 
 18 H18      9.2170    -0.0670    25.0580 H     1 LIG   0.0000 
 19 C19      8.8790    -1.2770    26.7140 C.3   1 LIG   0.0000 
 20 H20      9.7890    -1.1740    27.1160 H     1 LIG   0.0000 
 21 H21      8.2520    -0.6220    27.1360 H     1 LIG   0.0000 
 22 C22      8.3740    -2.6900    26.9600 C.ar  1 LIG   0.0000 
 23 C23      9.2570    -3.7620    26.8700 C.ar  1 LIG   0.0000 
 24 H24     10.2180    -3.6050    26.6460 H     1 LIG   0.0000 
 25 C25      8.7910    -5.0540    27.0940 C.ar  1 LIG   0.0000 
 26 H26      9.4180    -5.8290    27.0310 H     1 LIG   0.0000 
 27 C27      7.4520    -5.2660    27.4070 C.ar  1 LIG   0.0000 
 28 H28      7.1170    -6.1940    27.5690 H     1 LIG   0.0000 
 29 C29      6.5800    -4.1870    27.4940 C.ar  1 LIG   0.0000 
 30 H30      5.6180    -4.3440    27.7190 H     1 LIG   0.0000 
 31 C31      7.0330    -2.8910    27.2720 C.ar  1 LIG   0.0000 
 32 H32      6.4050    -2.1160    27.3350 H     1 LIG   0.0000 
 33 C33     11.1550    -1.1230    24.0780 C.ar  1 LIG   0.0000 
 34 C34     11.4820     0.0820    24.6910 C.ar  1 LIG   0.0000 
 35 H35     10.9510     0.4140    25.4710 H     1 LIG   0.0000 
 36 C36     12.5560     0.8210    24.2060 C.ar  1 LIG   0.0000 
 37 H37     12.7970     1.6880    24.6420 H     1 LIG   0.0000 
 38 C38     13.3000     0.3680    23.1200 C.ar  1 LIG   0.0000 
 39 H39     14.0710     0.9030    22.7760 H     1 LIG   0.0000 
 40 C40     12.9560    -0.8390    22.5210 C.ar  1 LIG   0.0000 
 41 CL41    13.9010    -1.4250    21.1320 Cl    1 LIG   0.0000 
 42 C42     11.8850    -1.5930    22.9910 C.ar  1 LIG   0.0000 
 43 H43     11.6440    -2.4600    22.5550 H     1 LIG   0.0000 
 44 C44      8.8360    -1.6720    22.5500 C.3   1 LIG   0.0000 
 45 H45      9.5880    -1.1000    22.2220 H     1 LIG   0.0000 
 46 H46      8.1710    -1.1030    23.0350 H     1 LIG   0.0000 
 47 C47      8.1520    -2.3220    21.3560 C.3   1 LIG   0.0000 
 48 H48      7.6200    -1.6290    20.8680 H     1 LIG   0.0000 
 49 H49      8.8490    -2.6970    20.7450 H     1 LIG   0.0000 
 50 H50     10.3100    -2.5920    25.2820 H     1 LIG   0.0000 
@<TRIPOS>BOND
  1   1   2  2   
  2   2   3  1   
  3   2   7  am  
  4   3   4  1   
  5   3   5  1   
  6   3   6  1   
  7   7   8  1   
  8   7  47  1   
  9   8   9  1   
 10   8  10  1   
 11   8  11  1   
 12  11  12  1   
 13  11  13  1   
 14  11  14  1   
 15  14  15  1   
 16  14  44  1   
 17  15  16  1   
 18  15  33  1   
 19  15  50  1   
 20  16  17  1   
 21  16  18  1   
 22  16  19  1   
 23  19  20  1   
 24  19  21  1   
 25  19  22  1   
 26  22  23  ar  
 27  22  31  ar  
 28  23  24  1   
 29  23  25  ar  
 30  25  26  1   
 31  25  27  ar  
 32  27  28  1   
 33  27  29  ar  
 34  29  30  1   
 35  29  31  ar  
 36  31  32  1   
 37  33  34  ar  
 38  33  42  ar  
 39  34  35  1   
 40  34  36  ar  
 41  36  37  1   
 42  36  38  ar  
 43  38  39  1   
 44  38  40  ar  
 45  40  41  1   
 46  40  42  ar  
 47  42  43  1   
 48  44  45  1   
 49  44  46  1   
 50  44  47  1   
 51  47  48  1   
 52  47  49  1   
@<TRIPOS>SUBSTRUCTURE
  1 LIG  14 GROUP 4 **** **** 0
@<TRIPOS>PROPERTY_DATA
index	|	ligand505
Name	|	PAU-WEI-b9b-1
ChemPlp	|	-92.7379
MM-GBSA Nwat=0	|	-23.8454
STDEV0	|	3.733
MM-GBSA Nwat=30	|	-36.9642
STDEV30	|	5.0376
MM-GBSA Nwat=60	|	-42.8528
STDEV60	|	4.1709
ST.DEV < 10%	|	N
RMSD LIG < 2	|	
DIST < 5	|	
DIST < 3.5	|	N

# MOE 2019.01 (io_trps.svl 2018.10)

@<TRIPOS>MOLECULE
ligand215
74 78 1 0 0 
SMALL
NO_CHARGES


@<TRIPOS>ATOM
  1 C1       7.5370     5.6040    24.3080 C.3   1 LIG   0.0000 
  2 C5       8.2840     6.0810    23.0730 C.3   1 LIG   0.0000 
  3 N6       9.4430     5.2080    22.8340 N.am  1 LIG   0.0000 
  4 C8      10.3630     5.0040    23.8290 C.2   1 LIG   0.0000 
  5 O9      10.2230     5.5370    24.8950 O.2   1 LIG   0.0000 
  6 C10     11.5610     4.1020    23.5820 C.3   1 LIG   0.0000 
  7 C11     11.2210     2.9080    22.7190 C.3   1 LIG   0.0000 
  8 C12     11.1520     1.6260    23.5350 C.ar  1 LIG   0.0000 
  9 C13     11.9120     1.5640    24.6970 C.ar  1 LIG   0.0000 
 10 C15     11.8940     0.4200    25.4870 C.ar  1 LIG   0.0000 
 11 C17     11.0990    -0.6480    25.0870 C.ar  1 LIG   0.0000 
 12 C19     10.3290    -0.6040    23.9270 C.ar  1 LIG   0.0000 
 13 C20     10.3610     0.5460    23.1460 C.ar  1 LIG   0.0000 
 14 C21      9.5150     0.5670    21.8810 C.3   1 LIG   0.0000 
 15 N24      8.2380    -0.1320    22.0800 N.am  1 LIG   0.0000 
 16 C25      7.1590     0.2200    21.2600 C.2   1 LIG   0.0000 
 17 O26      6.1000    -0.3300    21.3920 O.2   1 LIG   0.0000 
 18 C27      7.3280     1.3000    20.2030 C.3   1 LIG   0.0000 
 19 CL30     6.7480     0.6900    18.6340 Cl    1 LIG   0.0000 
 20 C31      8.1120    -1.1720    23.1140 C.3   1 LIG   0.0000 
 21 C32      7.1700    -2.2440    22.5890 C.ar  1 LIG   0.0000 
 22 C33      6.0860    -2.6350    23.3680 C.ar  1 LIG   0.0000 
 23 C35      5.2320    -3.6170    22.8770 C.ar  1 LIG   0.0000 
 24 N36      4.1370    -4.0180    23.6530 N.am  1 LIG   0.0000 
 25 C38      3.5240    -5.2180    23.4040 C.2   1 LIG   0.0000 
 26 N39      2.4540    -5.6110    24.1620 N.am  1 LIG   0.0000 
 27 O42      3.9250    -5.9250    22.5200 O.2   1 LIG   0.0000 
 28 N43      5.4760    -4.1550    21.6730 N.ar  1 LIG   0.0000 
 29 C44      6.5250    -3.7680    20.9330 C.ar  1 LIG   0.0000 
 30 N46      7.3580    -2.8220    21.3930 N.ar  1 LIG   0.0000 
 31 C47      9.4520    -1.7720    23.5000 C.3   1 LIG   0.0000 
 32 C48      9.1860    -2.7790    24.6070 C.ar  1 LIG   0.0000 
 33 C49      9.4090    -4.1320    24.3750 C.ar  1 LIG   0.0000 
 34 C51      9.1630    -5.0510    25.3910 C.ar  1 LIG   0.0000 
 35 C53      8.6980    -4.6140    26.6270 C.ar  1 LIG   0.0000 
 36 C55      8.4790    -3.2600    26.8470 C.ar  1 LIG   0.0000 
 37 C57      8.7210    -2.3310    25.8390 C.ar  1 LIG   0.0000 
 38 C59     12.5930     3.1050    22.1110 C.3   1 LIG   0.0000 
 39 C62     12.4200     4.5720    22.4290 C.3   1 LIG   0.0000 
 40 F63     13.5530     5.1470    22.8210 F     1 LIG   0.0000 
 41 F64     11.7820     5.2660    21.4890 F     1 LIG   0.0000 
 42 C65      7.3570     6.0330    21.8700 C.2   1 LIG   0.0000 
 43 N66      6.5860     4.9230    21.6430 N.am  1 LIG   0.0000 
 44 O69      7.3000     6.9670    21.1180 O.2   1 LIG   0.0000 
 45 H13     12.4750     2.3450    24.9660 H     1 LIG   0.0000 
 46 H15     12.4380     0.3680    26.3240 H     1 LIG   0.0000 
 47 H17     11.0810    -1.4750    25.6490 H     1 LIG   0.0000 
 48 H33      5.9250    -2.2190    24.2630 H     1 LIG   0.0000 
 49 H44      6.6870    -4.1840    20.0380 H     1 LIG   0.0000 
 50 H49      9.7440    -4.4430    23.4860 H     1 LIG   0.0000 
 51 H51      9.3200    -6.0260    25.2320 H     1 LIG   0.0000 
 52 H53      8.5220    -5.2740    27.3570 H     1 LIG   0.0000 
 53 H55      8.1450    -2.9500    27.7370 H     1 LIG   0.0000 
 54 H57      8.5630    -1.3570    25.9980 H     1 LIG   0.0000 
 55 H11      6.7490     6.1970    24.4710 H     1 LIG   0.0000 
 56 H12      7.2240     4.6650    24.1660 H     1 LIG   0.0000 
 57 H13      8.1470     5.6360    25.1000 H     1 LIG   0.0000 
 58 H5       8.5980     7.0200    23.2150 H     1 LIG   0.0000 
 59 H10     12.0770     3.8740    24.4070 H     1 LIG   0.0000 
 60 H11     10.4570     3.0480    22.0900 H     1 LIG   0.0000 
 61 H211     9.3300     1.5170    21.6290 H     1 LIG   0.0000 
 62 H212    10.0200     0.1190    21.1440 H     1 LIG   0.0000 
 63 H271     6.7990     2.1070    20.4630 H     1 LIG   0.0000 
 64 H272     8.2950     1.5440    20.1280 H     1 LIG   0.0000 
 65 H31      7.7020    -0.7620    23.9290 H     1 LIG   0.0000 
 66 H47      9.8590    -2.2320    22.7110 H     1 LIG   0.0000 
 67 H591    13.3390     2.6540    22.6000 H     1 LIG   0.0000 
 68 H592    12.6560     2.8910    21.1360 H     1 LIG   0.0000 
 69 H6       9.5600     4.7640    21.9460 H     1 LIG   0.0000 
 70 H36      3.8030    -3.4300    24.3890 H     1 LIG   0.0000 
 71 H391     2.1190    -5.0220    24.8980 H     1 LIG   0.0000 
 72 H392     2.0060    -6.4870    23.9800 H     1 LIG   0.0000 
 73 H661     6.6330     4.1450    22.2690 H     1 LIG   0.0000 
 74 H662     5.9760     4.8920    20.8510 H     1 LIG   0.0000 
@<TRIPOS>BOND
  1   1   2  1   
  2   1  55  1   
  3   1  56  1   
  4   1  57  1   
  5   2   3  1   
  6   2  42  1   
  7   2  58  1   
  8   3   4  am  
  9   3  69  1   
 10   4   5  2   
 11   4   6  1   
 12   6   7  1   
 13   6  39  1   
 14   6  59  1   
 15   7   8  1   
 16   7  38  1   
 17   7  60  1   
 18   8   9  ar  
 19   8  13  ar  
 20   9  10  ar  
 21   9  45  1   
 22  10  11  ar  
 23  10  46  1   
 24  11  12  ar  
 25  11  47  1   
 26  12  13  ar  
 27  12  31  1   
 28  13  14  1   
 29  14  15  1   
 30  14  61  1   
 31  14  62  1   
 32  15  16  am  
 33  15  20  1   
 34  16  17  2   
 35  16  18  1   
 36  18  19  1   
 37  18  63  1   
 38  18  64  1   
 39  20  21  1   
 40  20  31  1   
 41  20  65  1   
 42  21  22  ar  
 43  21  30  ar  
 44  22  23  ar  
 45  22  48  1   
 46  23  24  1   
 47  23  28  ar  
 48  24  25  am  
 49  24  70  1   
 50  25  26  am  
 51  25  27  2   
 52  26  71  1   
 53  26  72  1   
 54  28  29  ar  
 55  29  30  ar  
 56  29  49  1   
 57  31  32  1   
 58  31  66  1   
 59  32  33  ar  
 60  32  37  ar  
 61  33  34  ar  
 62  33  50  1   
 63  34  35  ar  
 64  34  51  1   
 65  35  36  ar  
 66  35  52  1   
 67  36  37  ar  
 68  36  53  1   
 69  37  54  1   
 70  38  39  1   
 71  38  67  1   
 72  38  68  1   
 73  39  40  1   
 74  39  41  1   
 75  42  43  am  
 76  42  44  2   
 77  43  73  1   
 78  43  74  1   
@<TRIPOS>SUBSTRUCTURE
  1 LIG  15 GROUP 4 **** **** 0
@<TRIPOS>PROPERTY_DATA
index	|	ligand215
Name	|	INS-INS-9a4-1
ChemPlp	|	-102.543
MM-GBSA Nwat=0	|	-18.3263
STDEV0	|	3.6373
MM-GBSA Nwat=30	|	-36.4301
STDEV30	|	7.9767
MM-GBSA Nwat=60	|	-60.6029
STDEV60	|	9.1941
ST.DEV < 10%	|	N
RMSD LIG < 2	|	
DIST < 5	|	
DIST < 3.5	|	N

# MOE 2019.01 (io_trps.svl 2018.10)

@<TRIPOS>MOLECULE
ligand037
53 54 1 0 0 
SMALL
NO_CHARGES


@<TRIPOS>ATOM
  1 C1      10.0010    -4.3380    25.5630 C.2   1 LIG   0.0000 
  2 C4       9.6840    -5.1120    26.5590 C.2   1 LIG   0.0000 
  3 C6       8.3700    -4.9040    27.2940 C.2   1 LIG   0.0000 
  4 O7       7.7500    -3.8890    27.1400 O.2   1 LIG   0.0000 
  5 N8       7.8930    -5.8770    28.1330 N.am  1 LIG   0.0000 
  6 C10      6.7080    -5.6900    28.7950 C.2   1 LIG   0.0000 
  7 O11      6.7020    -5.1760    29.8800 O.2   1 LIG   0.0000 
  8 C12      5.4020    -6.1340    28.1570 C.3   1 LIG   0.0000 
  9 N15      5.6670    -6.6500    26.8070 N.pl3 1 LIG   0.0000 
 10 C17      5.0040    -6.0990    25.7040 C.ar  1 LIG   0.0000 
 11 C18      3.8100    -5.4130    25.8960 C.ar  1 LIG   0.0000 
 12 C20      3.1610    -4.8700    24.7920 C.ar  1 LIG   0.0000 
 13 C21      1.8560    -4.1180    24.9910 C.3   1 LIG   0.0000 
 14 C24      0.7850    -4.7120    24.0910 C.3   1 LIG   0.0000 
 15 C28      3.6860    -5.0050    23.5110 C.ar  1 LIG   0.0000 
 16 C30      4.8810    -5.6960    23.3470 C.ar  1 LIG   0.0000 
 17 C31      5.4660    -5.8520    21.9520 C.3   1 LIG   0.0000 
 18 C34      6.1080    -4.5420    21.5230 C.ar  1 LIG   0.0000 
 19 N35      5.5430    -3.7480    20.5980 N.ar  1 LIG   0.0000 
 20 C36      6.0970    -2.5880    20.2070 C.ar  1 LIG   0.0000 
 21 N37      5.5000    -1.7670    19.2420 N.pl3 1 LIG   0.0000 
 22 C39      6.1660    -0.5270    18.8180 C.3   1 LIG   0.0000 
 23 C42      5.2160     0.6460    19.0010 C.3   1 LIG   0.0000 
 24 C46      7.3010    -2.1740    20.7680 C.ar  1 LIG   0.0000 
 25 C48      7.9090    -2.9760    21.7290 C.ar  1 LIG   0.0000 
 26 C50      7.3130    -4.1730    22.1150 C.ar  1 LIG   0.0000 
 27 F51      7.9000    -4.9340    23.0330 F     1 LIG   0.0000 
 28 C52      5.5510    -6.2490    24.4340 C.ar  1 LIG   0.0000 
 29 H18      3.4240    -5.3100    26.8130 H     1 LIG   0.0000 
 30 H28      3.2120    -4.6120    22.7230 H     1 LIG   0.0000 
 31 H52      6.4100    -6.7440    24.3040 H     1 LIG   0.0000 
 32 H46      7.7230    -1.3130    20.4850 H     1 LIG   0.0000 
 33 H48      8.7740    -2.6930    22.1420 H     1 LIG   0.0000 
 34 H121     4.9870    -6.8540    28.7140 H     1 LIG   0.0000 
 35 H122     4.7780    -5.3560    28.1000 H     1 LIG   0.0000 
 36 H211     1.9880    -3.1540    24.7590 H     1 LIG   0.0000 
 37 H212     1.5690    -4.1940    25.9460 H     1 LIG   0.0000 
 38 H241    -0.0740    -4.2170    24.2220 H     1 LIG   0.0000 
 39 H242     1.0720    -4.6350    23.1360 H     1 LIG   0.0000 
 40 H243     0.6530    -5.6760    24.3220 H     1 LIG   0.0000 
 41 H311     6.1570    -6.5750    21.9590 H     1 LIG   0.0000 
 42 H312     4.7380    -6.0920    21.3100 H     1 LIG   0.0000 
 43 H391     6.4230    -0.6000    17.8540 H     1 LIG   0.0000 
 44 H392     6.9850    -0.3830    19.3720 H     1 LIG   0.0000 
 45 H421     5.6690     1.4890    18.7120 H     1 LIG   0.0000 
 46 H422     4.3970     0.5010    18.4460 H     1 LIG   0.0000 
 47 H423     4.9590     0.7190    19.9640 H     1 LIG   0.0000 
 48 H11     10.8650    -4.4750    25.0800 H     1 LIG   0.0000 
 49 H12      9.3800    -3.6070    25.2810 H     1 LIG   0.0000 
 50 H4      10.3040    -5.8430    26.8410 H     1 LIG   0.0000 
 51 H8       8.4090    -6.7240    28.2610 H     1 LIG   0.0000 
 52 H15      6.3210    -7.3950    26.6760 H     1 LIG   0.0000 
 53 H37      4.6200    -2.0250    18.8420 H     1 LIG   0.0000 
@<TRIPOS>BOND
  1   1   2  2   
  2   1  48  1   
  3   1  49  1   
  4   2   3  1   
  5   2  50  1   
  6   3   4  2   
  7   3   5  am  
  8   5   6  am  
  9   5  51  1   
 10   6   7  2   
 11   6   8  1   
 12   8   9  1   
 13   8  34  1   
 14   8  35  1   
 15   9  10  1   
 16   9  52  1   
 17  10  11  ar  
 18  10  28  ar  
 19  11  12  ar  
 20  11  29  1   
 21  12  13  1   
 22  12  15  ar  
 23  13  14  1   
 24  13  36  1   
 25  13  37  1   
 26  14  38  1   
 27  14  39  1   
 28  14  40  1   
 29  15  16  ar  
 30  15  30  1   
 31  16  17  1   
 32  16  28  ar  
 33  17  18  1   
 34  17  41  1   
 35  17  42  1   
 36  18  19  ar  
 37  18  26  ar  
 38  19  20  ar  
 39  20  21  1   
 40  20  24  ar  
 41  21  22  1   
 42  21  53  1   
 43  22  23  1   
 44  22  43  1   
 45  22  44  1   
 46  23  45  1   
 47  23  46  1   
 48  23  47  1   
 49  24  25  ar  
 50  24  32  1   
 51  25  26  ar  
 52  25  33  1   
 53  26  27  1   
 54  28  31  1   
@<TRIPOS>SUBSTRUCTURE
  1 LIG  16 GROUP 4 **** **** 0
@<TRIPOS>PROPERTY_DATA
index	|	ligand037
Name	|	BEN-VAN-ed8-12
ChemPlp	|	-101.114
MM-GBSA Nwat=0	|	-16.5928
STDEV0	|	2.6287
MM-GBSA Nwat=30	|	-36.4289
STDEV30	|	6.1932
MM-GBSA Nwat=60	|	-55.4661
STDEV60	|	6.9773
ST.DEV < 10%	|	N
RMSD LIG < 2	|	
DIST < 5	|	
DIST < 3.5	|	N

# MOE 2019.01 (io_trps.svl 2018.10)

@<TRIPOS>MOLECULE
ligand250
59 63 1 0 0 
SMALL
NO_CHARGES


@<TRIPOS>ATOM
  1 O1       5.7830     2.7820    21.0960 O.2   1 LIG   0.0000 
  2 C2       6.1800     1.6740    20.8630 C.2   1 LIG   0.0000 
  3 C3       5.3670     0.7460    19.9760 C.3   1 LIG   0.0000 
  4 CL6      6.1030     0.6760    18.3570 Cl    1 LIG   0.0000 
  5 N7       7.3920     1.2360    21.4100 N.am  1 LIG   0.0000 
  6 C8       7.9040    -0.1160    21.1440 C.3   1 LIG   0.0000 
  7 C11      8.6410    -0.5680    22.3960 C.3   1 LIG   0.0000 
  8 C12      9.8920     0.2620    22.2320 C.2   1 LIG   0.0000 
  9 C13     10.9690    -0.4880    22.2880 C.2   1 LIG   0.0000 
 10 C15     10.5880    -1.8720    22.4920 C.2   1 LIG   0.0000 
 11 C17      9.2750    -1.9390    22.5510 C.2   1 LIG   0.0000 
 12 C18      8.5040    -3.2340    22.7590 C.3   1 LIG   0.0000 
 13 C19      7.0200    -2.9150    22.6330 C.3   1 LIG   0.0000 
 14 N22      6.3080    -4.1810    22.8490 N.am  1 LIG   0.0000 
 15 C23      5.7650    -4.9860    21.8410 C.2   1 LIG   0.0000 
 16 O24      5.8560    -4.6520    20.6920 O.2   1 LIG   0.0000 
 17 C25      5.0580    -6.2830    22.2010 C.3   1 LIG   0.0000 
 18 CL28     3.6250    -5.9220    23.1930 Cl    1 LIG   0.0000 
 19 C29      6.2520    -4.4950    24.2800 C.3   1 LIG   0.0000 
 20 C32      7.6730    -4.4370    24.8220 C.ar  1 LIG   0.0000 
 21 C33      7.9110    -4.9930    26.0800 C.ar  1 LIG   0.0000 
 22 C35      9.1860    -4.9320    26.6350 C.ar  1 LIG   0.0000 
 23 C37     10.2370    -4.3260    25.9530 C.ar  1 LIG   0.0000 
 24 C39     10.0010    -3.7810    24.6960 C.ar  1 LIG   0.0000 
 25 C41      8.7280    -3.8390    24.1350 C.ar  1 LIG   0.0000 
 26 C42      9.6640     1.7520    22.0060 C.3   1 LIG   0.0000 
 27 C43     10.6440     2.6200    22.7800 C.ar  1 LIG   0.0000 
 28 C44     10.2380     3.2360    23.9590 C.ar  1 LIG   0.0000 
 29 C46     11.1370     4.0300    24.6630 C.ar  1 LIG   0.0000 
 30 C48     12.4330     4.2010    24.1880 C.ar  1 LIG   0.0000 
 31 C50     12.8290     3.5800    23.0100 C.ar  1 LIG   0.0000 
 32 C52     11.9380     2.7850    22.2960 C.ar  1 LIG   0.0000 
 33 C54      8.2080     2.1010    22.2700 C.3   1 LIG   0.0000 
 34 H33      7.1670    -5.4340    26.5810 H     1 LIG   0.0000 
 35 H35      9.3490    -5.3290    27.5380 H     1 LIG   0.0000 
 36 H37     11.1480    -4.2840    26.3610 H     1 LIG   0.0000 
 37 H39     10.7480    -3.3460    24.1930 H     1 LIG   0.0000 
 38 H44      9.3050     3.1100    24.2970 H     1 LIG   0.0000 
 39 H46     10.8520     4.4770    25.5110 H     1 LIG   0.0000 
 40 H48     13.0800     4.7710    24.6940 H     1 LIG   0.0000 
 41 H50     13.7620     3.7060    22.6720 H     1 LIG   0.0000 
 42 H52     12.2240     2.3380    21.4480 H     1 LIG   0.0000 
 43 H31      5.3530    -0.1710    20.3760 H     1 LIG   0.0000 
 44 H32      4.4310     1.0900    19.9020 H     1 LIG   0.0000 
 45 H81      8.5300    -0.0990    20.3640 H     1 LIG   0.0000 
 46 H82      7.1460    -0.7380    20.9480 H     1 LIG   0.0000 
 47 H11      8.1410    -0.3080    23.2220 H     1 LIG   0.0000 
 48 H18      8.7650    -3.8960    22.0560 H     1 LIG   0.0000 
 49 H191     6.7510    -2.2440    23.3240 H     1 LIG   0.0000 
 50 H192     6.8190    -2.5550    21.7220 H     1 LIG   0.0000 
 51 H251     4.7760    -6.7520    21.3650 H     1 LIG   0.0000 
 52 H252     5.6820    -6.8700    22.7180 H     1 LIG   0.0000 
 53 H291     5.8740    -5.4110    24.4140 H     1 LIG   0.0000 
 54 H292     5.6800    -3.8250    24.7530 H     1 LIG   0.0000 
 55 H42      9.8310     1.9250    21.0360 H     1 LIG   0.0000 
 56 H541     7.9850     1.9380    23.2310 H     1 LIG   0.0000 
 57 H542     8.0400     3.0620    22.0480 H     1 LIG   0.0000 
 58 H13     11.9080    -0.1550    22.2010 H     1 LIG   0.0000 
 59 H15     11.2170    -2.6450    22.5750 H     1 LIG   0.0000 
@<TRIPOS>BOND
  1   1   2  2   
  2   2   3  1   
  3   2   5  am  
  4   3   4  1   
  5   3  43  1   
  6   3  44  1   
  7   5   6  1   
  8   5  33  1   
  9   6   7  1   
 10   6  45  1   
 11   6  46  1   
 12   7   8  1   
 13   7  11  1   
 14   7  47  1   
 15   8   9  2   
 16   8  26  1   
 17   9  10  1   
 18   9  58  1   
 19  10  11  2   
 20  10  59  1   
 21  11  12  1   
 22  12  13  1   
 23  12  25  1   
 24  12  48  1   
 25  13  14  1   
 26  13  49  1   
 27  13  50  1   
 28  14  15  am  
 29  14  19  1   
 30  15  16  2   
 31  15  17  1   
 32  17  18  1   
 33  17  51  1   
 34  17  52  1   
 35  19  20  1   
 36  19  53  1   
 37  19  54  1   
 38  20  21  ar  
 39  20  25  ar  
 40  21  22  ar  
 41  21  34  1   
 42  22  23  ar  
 43  22  35  1   
 44  23  24  ar  
 45  23  36  1   
 46  24  25  ar  
 47  24  37  1   
 48  26  27  1   
 49  26  33  1   
 50  26  55  1   
 51  27  28  ar  
 52  27  32  ar  
 53  28  29  ar  
 54  28  38  1   
 55  29  30  ar  
 56  29  39  1   
 57  30  31  ar  
 58  30  40  1   
 59  31  32  ar  
 60  31  41  1   
 61  32  42  1   
 62  33  56  1   
 63  33  57  1   
@<TRIPOS>SUBSTRUCTURE
  1 LIG   7 GROUP 4 **** **** 0
@<TRIPOS>PROPERTY_DATA
index	|	ligand250
Name	|	JAR-IMP-ed4-2
ChemPlp	|	-94.0835
MM-GBSA Nwat=0	|	-20.0299
STDEV0	|	3.2081
MM-GBSA Nwat=30	|	-35.1971
STDEV30	|	5.7954
MM-GBSA Nwat=60	|	-52.2387
STDEV60	|	5.5776
ST.DEV < 10%	|	N
RMSD LIG < 2	|	
DIST < 5	|	
DIST < 3.5	|	N

# MOE 2019.01 (io_trps.svl 2018.10)

@<TRIPOS>MOLECULE
ligand040
47 48 1 0 0 
SMALL
NO_CHARGES


@<TRIPOS>ATOM
  1 C1       8.5040    -2.4130    26.4220 C.2   1 LIG   0.0000 
  2 H2       9.0110    -1.7610    25.8590 H     1 LIG   0.0000 
  3 H3       7.7010    -2.1110    26.9360 H     1 LIG   0.0000 
  4 C4       8.8880    -3.6530    26.4860 C.2   1 LIG   0.0000 
  5 H5       9.6900    -3.9550    25.9720 H     1 LIG   0.0000 
  6 C6       8.1160    -4.6440    27.3420 C.2   1 LIG   0.0000 
  7 O7       8.4990    -5.7770    27.4400 O.2   1 LIG   0.0000 
  8 N8       6.9840    -4.2450    28.0000 N.am  1 LIG   0.0000 
  9 H9       6.6640    -3.3000    27.9180 H     1 LIG   0.0000 
 10 C10      6.2880    -5.1380    28.7720 C.2   1 LIG   0.0000 
 11 O11      6.5500    -5.2560    29.9370 O.2   1 LIG   0.0000 
 12 C12      5.1850    -5.9800    28.1520 C.3   1 LIG   0.0000 
 13 H13      4.9990    -6.7690    28.7380 H     1 LIG   0.0000 
 14 H14      4.3550    -5.4290    28.0620 H     1 LIG   0.0000 
 15 N15      5.6110    -6.4450    26.8240 N.pl3 1 LIG   0.0000 
 16 H16      6.3910    -7.0640    26.7380 H     1 LIG   0.0000 
 17 C17      4.9240    -6.0210    25.6810 C.ar  1 LIG   0.0000 
 18 C18      3.6660    -5.4430    25.8130 C.ar  1 LIG   0.0000 
 19 H19      3.2500    -5.3290    26.7160 H     1 LIG   0.0000 
 20 C20      2.9960    -5.0270    24.6680 C.ar  1 LIG   0.0000 
 21 F21      1.7920    -4.4730    24.7810 F     1 LIG   0.0000 
 22 C22      3.5630    -5.1790    23.4070 C.ar  1 LIG   0.0000 
 23 H23      3.0730    -4.8760    22.5890 H     1 LIG   0.0000 
 24 C24      4.8220    -5.7600    23.3020 C.ar  1 LIG   0.0000 
 25 C25      5.4520    -5.9320    21.9300 C.3   1 LIG   0.0000 
 26 H26      6.1450    -6.6510    21.9690 H     1 LIG   0.0000 
 27 H27      4.7450    -6.1860    21.2690 H     1 LIG   0.0000 
 28 C28      6.1000    -4.6250    21.5020 C.ar  1 LIG   0.0000 
 29 N29      5.5330    -3.8220    20.5850 N.ar  1 LIG   0.0000 
 30 C30      6.0930    -2.6640    20.1950 C.ar  1 LIG   0.0000 
 31 N31      5.4940    -1.8350    19.2390 N.pl3 1 LIG   0.0000 
 32 H32      4.6150    -2.0900    18.8360 H     1 LIG   0.0000 
 33 C33      6.1590    -0.5900    18.8260 C.3   1 LIG   0.0000 
 34 H34      6.4250    -0.6580    17.8650 H     1 LIG   0.0000 
 35 H35      6.9730    -0.4450    19.3880 H     1 LIG   0.0000 
 36 C36      5.2030     0.5780    19.0070 C.3   1 LIG   0.0000 
 37 H37      5.6550     1.4240    18.7260 H     1 LIG   0.0000 
 38 H38      4.3890     0.4320    18.4440 H     1 LIG   0.0000 
 39 H39      4.9360     0.6450    19.9680 H     1 LIG   0.0000 
 40 C40      7.3040    -2.2630    20.7490 C.ar  1 LIG   0.0000 
 41 H41      7.7300    -1.4030    20.4670 H     1 LIG   0.0000 
 42 C42      7.9130    -3.0740    21.7010 C.ar  1 LIG   0.0000 
 43 H43      8.7840    -2.7980    22.1090 H     1 LIG   0.0000 
 44 C44      7.3120    -4.2680    22.0860 C.ar  1 LIG   0.0000 
 45 F45      7.9000    -5.0380    22.9960 F     1 LIG   0.0000 
 46 C46      5.5140    -6.1850    24.4320 C.ar  1 LIG   0.0000 
 47 H47      6.4190    -6.6020    24.3480 H     1 LIG   0.0000 
@<TRIPOS>BOND
  1   1   2  1   
  2   1   3  1   
  3   1   4  2   
  4   4   5  1   
  5   4   6  1   
  6   6   7  2   
  7   6   8  am  
  8   8   9  1   
  9   8  10  am  
 10  10  11  2   
 11  10  12  1   
 12  12  13  1   
 13  12  14  1   
 14  12  15  1   
 15  15  16  1   
 16  15  17  1   
 17  17  18  ar  
 18  17  46  ar  
 19  18  19  1   
 20  18  20  ar  
 21  20  21  1   
 22  20  22  ar  
 23  22  23  1   
 24  22  24  ar  
 25  24  25  1   
 26  24  46  ar  
 27  25  26  1   
 28  25  27  1   
 29  25  28  1   
 30  28  29  ar  
 31  28  44  ar  
 32  29  30  ar  
 33  30  31  1   
 34  30  40  ar  
 35  31  32  1   
 36  31  33  1   
 37  33  34  1   
 38  33  35  1   
 39  33  36  1   
 40  36  37  1   
 41  36  38  1   
 42  36  39  1   
 43  40  41  1   
 44  40  42  ar  
 45  42  43  1   
 46  42  44  ar  
 47  44  45  1   
 48  46  47  1   
@<TRIPOS>SUBSTRUCTURE
  1 LIG  46 GROUP 4 **** **** 0
@<TRIPOS>PROPERTY_DATA
index	|	ligand040
Name	|	BEN-VAN-ed8-4
ChemPlp	|	-92.6699
MM-GBSA Nwat=0	|	-18.303
STDEV0	|	3.4507
MM-GBSA Nwat=30	|	-34.0274
STDEV30	|	6.0103
MM-GBSA Nwat=60	|	-54.2844
STDEV60	|	6.3181
ST.DEV < 10%	|	N
RMSD LIG < 2	|	
DIST < 5	|	
DIST < 3.5	|	N

# MOE 2019.01 (io_trps.svl 2018.10)

@<TRIPOS>MOLECULE
ligand291
50 51 1 0 0 
SMALL
USER_CHARGES


@<TRIPOS>ATOM
  1 C1      12.1210     7.4510    26.5790 C.3   1 LIG   0.0000 
  2 N5      12.4650     7.1980    25.1720 N.4   1 LIG   1.0000 
  3 C8      12.4020     5.7540    24.9040 C.3   1 LIG   0.0000 
  4 C11     12.7870     5.4900    23.4570 C.3   1 LIG   0.0000 
  5 S14     12.9750     3.7090    23.1990 S.3   1 LIG   0.0000 
  6 C15     11.8020     2.5560    23.9540 C.2   1 LIG   0.0000 
  7 O16     10.9500     2.9650    24.6940 O.2   1 LIG   0.0000 
  8 C17     11.8920     1.1370    23.6660 C.ar  1 LIG   0.0000 
  9 C18     12.9280     0.6670    22.8660 C.ar  1 LIG   0.0000 
 10 C20     13.0040    -0.6950    22.5960 C.ar  1 LIG   0.0000 
 11 C22     12.0650    -1.5820    23.1120 C.ar  1 LIG   0.0000 
 12 C24     11.0380    -1.0880    23.9100 C.ar  1 LIG   0.0000 
 13 C25     10.0040    -2.0430    24.4820 C.3   1 LIG   0.0000 
 14 N28      9.5210    -2.9370    23.4190 N.4   1 LIG   1.0000 
 15 C30      8.6240    -3.9160    24.0550 C.3   1 LIG   0.0000 
 16 C33      8.0200    -4.8750    23.0400 C.3   1 LIG   0.0000 
 17 N36      7.5270    -4.1620    21.8510 N.am  1 LIG   0.0000 
 18 C37      6.4060    -4.6710    21.1840 C.2   1 LIG   0.0000 
 19 O38      5.9820    -4.1110    20.2110 O.2   1 LIG   0.0000 
 20 C39      5.7270    -5.9320    21.6930 C.3   1 LIG   0.0000 
 21 CL42     4.5290    -5.5000    22.9360 Cl    1 LIG   0.0000 
 22 C43      8.1590    -2.9320    21.3450 C.3   1 LIG   0.0000 
 23 C46      8.7610    -2.1050    22.4710 C.3   1 LIG   0.0000 
 24 C49     10.9410     0.2700    24.1940 C.ar  1 LIG   0.0000 
 25 H18     13.6080     1.2980    22.4920 H     1 LIG   0.0000 
 26 H20     13.7460    -1.0430    22.0220 H     1 LIG   0.0000 
 27 H22     12.1280    -2.5600    22.9130 H     1 LIG   0.0000 
 28 H49     10.1990     0.6180    24.7670 H     1 LIG   0.0000 
 29 H11     12.1640     8.4340    26.7610 H     1 LIG   0.0000 
 30 H12     11.1960     7.1180    26.7610 H     1 LIG   0.0000 
 31 H13     12.7700     6.9740    27.1710 H     1 LIG   0.0000 
 32 H51     11.8160     7.6760    24.5790 H     1 LIG   0.0000 
 33 H52     13.3900     7.5310    24.9900 H     1 LIG   0.0000 
 34 H81     11.4720     5.4250    25.0670 H     1 LIG   0.0000 
 35 H82     13.0370     5.2750    25.5100 H     1 LIG   0.0000 
 36 H111    12.0710     5.8410    22.8530 H     1 LIG   0.0000 
 37 H112    13.6510     5.9500    23.2530 H     1 LIG   0.0000 
 38 H251    10.4190    -2.5870    25.2120 H     1 LIG   0.0000 
 39 H252     9.2360    -1.5200    24.8520 H     1 LIG   0.0000 
 40 H28     10.2840    -3.3940    22.9620 H     1 LIG   0.0000 
 41 H301     7.8850    -3.4260    24.5170 H     1 LIG   0.0000 
 42 H302     9.1450    -4.4430    24.7270 H     1 LIG   0.0000 
 43 H331     8.7180    -5.5330    22.7590 H     1 LIG   0.0000 
 44 H332     7.2560    -5.3600    23.4670 H     1 LIG   0.0000 
 45 H391     5.2680    -6.3920    20.9330 H     1 LIG   0.0000 
 46 H392     6.4120    -6.5430    22.0880 H     1 LIG   0.0000 
 47 H431     7.4680    -2.3840    20.8730 H     1 LIG   0.0000 
 48 H432     8.8840    -3.1810    20.7020 H     1 LIG   0.0000 
 49 H461     9.3740    -1.4210    22.0770 H     1 LIG   0.0000 
 50 H462     8.0220    -1.6450    22.9650 H     1 LIG   0.0000 
@<TRIPOS>BOND
  1   1   2  1   
  2   1  29  1   
  3   1  30  1   
  4   1  31  1   
  5   2   3  1   
  6   2  32  1   
  7   2  33  1   
  8   3   4  1   
  9   3  34  1   
 10   3  35  1   
 11   4   5  1   
 12   4  36  1   
 13   4  37  1   
 14   5   6  1   
 15   6   7  2   
 16   6   8  1   
 17   8   9  ar  
 18   8  24  ar  
 19   9  10  ar  
 20   9  25  1   
 21  10  11  ar  
 22  10  26  1   
 23  11  12  ar  
 24  11  27  1   
 25  12  13  1   
 26  12  24  ar  
 27  13  14  1   
 28  13  38  1   
 29  13  39  1   
 30  14  15  1   
 31  14  23  1   
 32  14  40  1   
 33  15  16  1   
 34  15  41  1   
 35  15  42  1   
 36  16  17  1   
 37  16  43  1   
 38  16  44  1   
 39  17  18  am  
 40  17  22  1   
 41  18  19  2   
 42  18  20  1   
 43  20  21  1   
 44  20  45  1   
 45  20  46  1   
 46  22  23  1   
 47  22  47  1   
 48  22  48  1   
 49  23  49  1   
 50  23  50  1   
 51  24  28  1   
@<TRIPOS>SUBSTRUCTURE
  1 LIG  12 GROUP 4 **** **** 0
@<TRIPOS>PROPERTY_DATA
index	|	ligand291
Name	|	MAK-UNK-176-3
ChemPlp	|	-96.8494
MM-GBSA Nwat=0	|	-9.5895
STDEV0	|	4.2679
MM-GBSA Nwat=30	|	-32.8005
STDEV30	|	10.5625
MM-GBSA Nwat=60	|	-58.8379
STDEV60	|	7.4712
ST.DEV < 10%	|	N
RMSD LIG < 2	|	
DIST < 5	|	
DIST < 3.5	|	N

# MOE 2019.01 (io_trps.svl 2018.10)

@<TRIPOS>MOLECULE
ligand021
52 54 1 0 0 
SMALL
NO_CHARGES


@<TRIPOS>ATOM
  1 C1       5.1410    -6.7260    33.3500 C.2   1 LIG   0.0000 
  2 C4       5.1270    -6.8460    32.0560 C.2   1 LIG   0.0000 
  3 C6       6.1330    -6.0820    31.2110 C.2   1 LIG   0.0000 
  4 O7       6.9260    -5.3510    31.7370 O.2   1 LIG   0.0000 
  5 N8       6.1340    -6.2310    29.8180 N.am  1 LIG   0.0000 
  6 C9       5.1500    -7.1280    29.1930 C.3   1 LIG   0.0000 
  7 C12      4.7460    -6.6240    27.8160 C.3   1 LIG   0.0000 
  8 O15      5.8800    -6.2260    27.0540 O.3   1 LIG   0.0000 
  9 C16      6.5290    -5.1140    27.6560 C.3   1 LIG   0.0000 
 10 C17      7.6610    -4.6090    26.7760 C.ar  1 LIG   0.0000 
 11 C18      8.5940    -5.5040    26.2640 C.ar  1 LIG   0.0000 
 12 C20      9.6280    -5.0360    25.4590 C.ar  1 LIG   0.0000 
 13 C22      9.7180    -3.6780    25.1760 C.ar  1 LIG   0.0000 
 14 F23     10.7060    -3.2300    24.4060 F     1 LIG   0.0000 
 15 C24      8.7800    -2.7890    25.6920 C.ar  1 LIG   0.0000 
 16 C25      8.8930    -1.3070    25.3730 C.3   1 LIG   0.0000 
 17 O28      8.1930    -1.0270    24.1690 O.3   1 LIG   0.0000 
 18 C29      8.8070    -1.7190    23.0920 C.3   1 LIG   0.0000 
 19 C30     10.0980    -1.0140    22.7080 C.3   1 LIG   0.0000 
 20 N34      7.8970    -1.7370    21.9390 N.pl3 1 LIG   0.0000 
 21 C36      7.3030    -2.9380    21.5350 C.ar  1 LIG   0.0000 
 22 C37      7.7100    -4.1320    22.1170 C.ar  1 LIG   0.0000 
 23 C39      7.1270    -5.3320    21.7240 C.ar  1 LIG   0.0000 
 24 C41      6.1410    -5.2990    20.7450 C.ar  1 LIG   0.0000 
 25 N43      5.7610    -4.1360    20.1940 N.ar  1 LIG   0.0000 
 26 C44      6.3110    -2.9670    20.5610 C.ar  1 LIG   0.0000 
 27 CL45     5.8030    -1.4270    19.8270 Cl    1 LIG   0.0000 
 28 C46      7.7430    -3.2490    26.4980 C.ar  1 LIG   0.0000 
 29 C48      7.1120    -5.4860    29.0110 C.3   1 LIG   0.0000 
 30 H18      8.5220    -6.4790    26.4730 H     1 LIG   0.0000 
 31 H20     10.3040    -5.6730    25.0870 H     1 LIG   0.0000 
 32 H46      7.0680    -2.6120    26.8700 H     1 LIG   0.0000 
 33 H37      8.4230    -4.1290    22.8190 H     1 LIG   0.0000 
 34 H39      7.4100    -6.1980    22.1360 H     1 LIG   0.0000 
 35 H41      5.7100    -6.1510    20.4480 H     1 LIG   0.0000 
 36 H91      4.3370    -7.1760    29.7740 H     1 LIG   0.0000 
 37 H92      5.5500    -8.0400    29.1020 H     1 LIG   0.0000 
 38 H121     4.2680    -7.3550    27.3290 H     1 LIG   0.0000 
 39 H122     4.1350    -5.8400    27.9220 H     1 LIG   0.0000 
 40 H16      5.8630    -4.3790    27.7820 H     1 LIG   0.0000 
 41 H251     8.4970    -0.7740    26.1200 H     1 LIG   0.0000 
 42 H252     9.8560    -1.0620    25.2620 H     1 LIG   0.0000 
 43 H29      9.0100    -2.6580    23.3720 H     1 LIG   0.0000 
 44 H301    10.5310    -1.5020    21.9500 H     1 LIG   0.0000 
 45 H302     9.8950    -0.0760    22.4290 H     1 LIG   0.0000 
 46 H303    10.7170    -1.0020    23.4930 H     1 LIG   0.0000 
 47 H481     7.9240    -6.0540    28.8720 H     1 LIG   0.0000 
 48 H482     7.3700    -4.6510    29.4970 H     1 LIG   0.0000 
 49 H11      4.4790    -7.2290    33.9060 H     1 LIG   0.0000 
 50 H12      5.8140    -6.1310    33.7900 H     1 LIG   0.0000 
 51 H4       4.4540    -7.4420    31.6160 H     1 LIG   0.0000 
 52 H34      7.7020    -0.8920    21.4420 H     1 LIG   0.0000 
@<TRIPOS>BOND
  1   1   2  2   
  2   1  49  1   
  3   1  50  1   
  4   2   3  1   
  5   2  51  1   
  6   3   4  2   
  7   3   5  am  
  8   5   6  1   
  9   5  29  1   
 10   6   7  1   
 11   6  36  1   
 12   6  37  1   
 13   7   8  1   
 14   7  38  1   
 15   7  39  1   
 16   8   9  1   
 17   9  10  1   
 18   9  29  1   
 19   9  40  1   
 20  10  11  ar  
 21  10  28  ar  
 22  11  12  ar  
 23  11  30  1   
 24  12  13  ar  
 25  12  31  1   
 26  13  14  1   
 27  13  15  ar  
 28  15  16  1   
 29  15  28  ar  
 30  16  17  1   
 31  16  41  1   
 32  16  42  1   
 33  17  18  1   
 34  18  19  1   
 35  18  20  1   
 36  18  43  1   
 37  19  44  1   
 38  19  45  1   
 39  19  46  1   
 40  20  21  1   
 41  20  52  1   
 42  21  22  ar  
 43  21  26  ar  
 44  22  23  ar  
 45  22  33  1   
 46  23  24  ar  
 47  23  34  1   
 48  24  25  ar  
 49  24  35  1   
 50  25  26  ar  
 51  26  27  1   
 52  28  32  1   
 53  29  47  1   
 54  29  48  1   
@<TRIPOS>SUBSTRUCTURE
  1 LIG  10 GROUP 4 **** **** 0
@<TRIPOS>PROPERTY_DATA
index	|	ligand021
Name	|	BEN-VAN-77c-4
ChemPlp	|	-98.206
MM-GBSA Nwat=0	|	-17.0369
STDEV0	|	3.6232
MM-GBSA Nwat=30	|	-32.4064
STDEV30	|	6.2798
MM-GBSA Nwat=60	|	-44.952
STDEV60	|	6.3947
ST.DEV < 10%	|	N
RMSD LIG < 2	|	
DIST < 5	|	
DIST < 3.5	|	N

# MOE 2019.01 (io_trps.svl 2018.10)

@<TRIPOS>MOLECULE
ligand036
50 51 1 0 0 
SMALL
NO_CHARGES


@<TRIPOS>ATOM
  1 C1       9.9530    -4.3160    25.6090 C.2   1 LIG   0.0000 
  2 H2      10.8140    -4.4360    25.1150 H     1 LIG   0.0000 
  3 H3       9.3220    -3.5860    25.3440 H     1 LIG   0.0000 
  4 C4       9.6530    -5.1080    26.5950 C.2   1 LIG   0.0000 
  5 H5      10.2830    -5.8380    26.8600 H     1 LIG   0.0000 
  6 C6       8.3440    -4.9240    27.3460 C.2   1 LIG   0.0000 
  7 O7       7.7190    -3.9070    27.2230 O.2   1 LIG   0.0000 
  8 N8       7.8770    -5.9200    28.1620 N.am  1 LIG   0.0000 
  9 H9       8.3980    -6.7680    28.2640 H     1 LIG   0.0000 
 10 C10      6.6980    -5.7550    28.8390 C.2   1 LIG   0.0000 
 11 O11      6.6980    -5.2700    29.9370 O.2   1 LIG   0.0000 
 12 C12      5.3880    -6.1870    28.2000 C.3   1 LIG   0.0000 
 13 H13      4.9800    -6.9220    28.7410 H     1 LIG   0.0000 
 14 H14      4.7600    -5.4090    28.1680 H     1 LIG   0.0000 
 15 N15      5.6440    -6.6670    26.8340 N.pl3 1 LIG   0.0000 
 16 H16      6.2740    -7.4280    26.6820 H     1 LIG   0.0000 
 17 C17      5.0050    -6.0580    25.7470 C.ar  1 LIG   0.0000 
 18 C18      3.8630    -5.2950    25.9640 C.ar  1 LIG   0.0000 
 19 H19      3.4980    -5.1780    26.8870 H     1 LIG   0.0000 
 20 C20      3.2380    -4.6960    24.8750 C.ar  1 LIG   0.0000 
 21 C21      1.9900    -3.8590    25.1010 C.3   1 LIG   0.0000 
 22 H22      1.6660    -3.5020    24.2250 H     1 LIG   0.0000 
 23 H23      1.2780    -4.4260    25.5140 H     1 LIG   0.0000 
 24 H24      2.2060    -3.0970    25.7120 H     1 LIG   0.0000 
 25 C25      3.7360    -4.8510    23.5850 C.ar  1 LIG   0.0000 
 26 H26      3.2800    -4.4170    22.8080 H     1 LIG   0.0000 
 27 C27      4.8790    -5.6200    23.3970 C.ar  1 LIG   0.0000 
 28 C28      5.4340    -5.7980    21.9920 C.3   1 LIG   0.0000 
 29 H29      6.1100    -6.5340    21.9920 H     1 LIG   0.0000 
 30 H30      4.6890    -6.0290    21.3670 H     1 LIG   0.0000 
 31 C31      6.0930    -4.5040    21.5400 C.ar  1 LIG   0.0000 
 32 N32      5.5280    -3.7090    20.6150 N.ar  1 LIG   0.0000 
 33 C33      6.0970    -2.5640    20.2040 C.ar  1 LIG   0.0000 
 34 N34      5.5010    -1.7420    19.2400 N.pl3 1 LIG   0.0000 
 35 H35      4.6100    -1.9870    18.8570 H     1 LIG   0.0000 
 36 C36      6.1840    -0.5200    18.7910 C.3   1 LIG   0.0000 
 37 H37      6.4100    -0.6030    17.8210 H     1 LIG   0.0000 
 38 H38      7.0230    -0.3940    19.3200 H     1 LIG   0.0000 
 39 C39      5.2690     0.6760    18.9980 C.3   1 LIG   0.0000 
 40 H40      5.7340     1.5070    18.6920 H     1 LIG   0.0000 
 41 H41      4.4300     0.5500    18.4680 H     1 LIG   0.0000 
 42 H42      5.0420     0.7590    19.9680 H     1 LIG   0.0000 
 43 C43      7.3170    -2.1670    20.7430 C.ar  1 LIG   0.0000 
 44 H44      7.7500    -1.3170    20.4450 H     1 LIG   0.0000 
 45 C45      7.9250    -2.9700    21.7030 C.ar  1 LIG   0.0000 
 46 H46      8.8010    -2.6990    22.1000 H     1 LIG   0.0000 
 47 C47      7.3130    -4.1520    22.1100 C.ar  1 LIG   0.0000 
 48 F48      7.9000    -4.9150    23.0270 F     1 LIG   0.0000 
 49 C49      5.5240    -6.2300    24.4680 C.ar  1 LIG   0.0000 
 50 H50      6.3450    -6.7810    24.3210 H     1 LIG   0.0000 
@<TRIPOS>BOND
  1   1   2  1   
  2   1   3  1   
  3   1   4  2   
  4   4   5  1   
  5   4   6  1   
  6   6   7  2   
  7   6   8  am  
  8   8   9  1   
  9   8  10  am  
 10  10  11  2   
 11  10  12  1   
 12  12  13  1   
 13  12  14  1   
 14  12  15  1   
 15  15  16  1   
 16  15  17  1   
 17  17  18  ar  
 18  17  49  ar  
 19  18  19  1   
 20  18  20  ar  
 21  20  21  1   
 22  20  25  ar  
 23  21  22  1   
 24  21  23  1   
 25  21  24  1   
 26  25  26  1   
 27  25  27  ar  
 28  27  28  1   
 29  27  49  ar  
 30  28  29  1   
 31  28  30  1   
 32  28  31  1   
 33  31  32  ar  
 34  31  47  ar  
 35  32  33  ar  
 36  33  34  1   
 37  33  43  ar  
 38  34  35  1   
 39  34  36  1   
 40  36  37  1   
 41  36  38  1   
 42  36  39  1   
 43  39  40  1   
 44  39  41  1   
 45  39  42  1   
 46  43  44  1   
 47  43  45  ar  
 48  45  46  1   
 49  45  47  ar  
 50  47  48  1   
 51  49  50  1   
@<TRIPOS>SUBSTRUCTURE
  1 LIG  27 GROUP 4 **** **** 0
@<TRIPOS>PROPERTY_DATA
index	|	ligand036
Name	|	BEN-VAN-ed8-10
ChemPlp	|	-100.426
MM-GBSA Nwat=0	|	-14.7282
STDEV0	|	3.7354
MM-GBSA Nwat=30	|	-32.2271
STDEV30	|	5.6405
MM-GBSA Nwat=60	|	-54.982
STDEV60	|	5.8162
ST.DEV < 10%	|	N
RMSD LIG < 2	|	
DIST < 5	|	
DIST < 3.5	|	N

# MOE 2019.01 (io_trps.svl 2018.10)

@<TRIPOS>MOLECULE
ligand542
53 56 1 0 0 
SMALL
NO_CHARGES


@<TRIPOS>ATOM
  1 O1       5.9680    -3.9100    20.2310 O.2   1 LIG   0.0000 
  2 C2       6.4070    -4.4680    21.1980 C.2   1 LIG   0.0000 
  3 C3       5.8980    -5.8500    21.5750 C.3   1 LIG   0.0000 
  4 H4       5.4700    -6.2760    20.7780 H     1 LIG   0.0000 
  5 H5       6.6630    -6.4150    21.8840 H     1 LIG   0.0000 
  6 CL6      4.7010    -5.7040    22.8840 Cl    1 LIG   0.0000 
  7 N7       7.3890    -3.8470    21.9790 N.am  1 LIG   0.0000 
  8 C8       7.8940    -4.5740    23.1530 C.3   1 LIG   0.0000 
  9 H9       8.6320    -5.1900    22.8770 H     1 LIG   0.0000 
 10 H10      7.1530    -5.1050    23.5650 H     1 LIG   0.0000 
 11 C11      8.4180    -3.5610    24.1570 C.ar  1 LIG   0.0000 
 12 C12      8.2480    -3.7600    25.5240 C.ar  1 LIG   0.0000 
 13 O13      7.6180    -4.8480    26.0190 O.3   1 LIG   0.0000 
 14 C14      7.0950    -4.8270    27.3390 C.3   1 LIG   0.0000 
 15 H15      6.6170    -3.9620    27.4940 H     1 LIG   0.0000 
 16 H16      7.8440    -4.9160    27.9960 H     1 LIG   0.0000 
 17 C17      6.1240    -5.9820    27.5180 C.3   1 LIG   0.0000 
 18 H18      5.3420    -5.8580    26.9080 H     1 LIG   0.0000 
 19 H19      6.5850    -6.8420    27.2990 H     1 LIG   0.0000 
 20 N20      5.6570    -6.0190    28.9140 N.3   1 LIG   0.0000 
 21 C21      4.4420    -6.8340    29.0660 C.3   1 LIG   0.0000 
 22 H22      4.6370    -7.7720    28.7800 H     1 LIG   0.0000 
 23 H23      3.7170    -6.4540    28.4930 H     1 LIG   0.0000 
 24 C24      3.9840    -6.8380    30.5160 C.3   1 LIG   0.0000 
 25 H25      3.7420    -5.9070    30.7880 H     1 LIG   0.0000 
 26 H26      3.1840    -7.4310    30.6070 H     1 LIG   0.0000 
 27 O27      5.0210    -7.3170    31.3610 O.3   1 LIG   0.0000 
 28 C28      6.2040    -6.5380    31.2520 C.3   1 LIG   0.0000 
 29 H29      6.9110    -6.9270    31.8430 H     1 LIG   0.0000 
 30 H30      6.0080    -5.6000    31.5390 H     1 LIG   0.0000 
 31 C31      6.7010    -6.5300    29.8150 C.3   1 LIG   0.0000 
 32 H32      7.5090    -5.9440    29.7490 H     1 LIG   0.0000 
 33 H33      6.9420    -7.4620    29.5450 H     1 LIG   0.0000 
 34 C34      8.7350    -2.8190    26.4230 C.ar  1 LIG   0.0000 
 35 H35      8.6090    -2.9680    27.4040 H     1 LIG   0.0000 
 36 C36      9.3930    -1.6740    25.9890 C.ar  1 LIG   0.0000 
 37 H37      9.7410    -1.0020    26.6420 H     1 LIG   0.0000 
 38 C38      9.5530    -1.4910    24.6220 C.ar  1 LIG   0.0000 
 39 H39     10.0240    -0.6740    24.2890 H     1 LIG   0.0000 
 40 C40      9.0720    -2.4210    23.7070 C.ar  1 LIG   0.0000 
 41 C41      9.2480    -2.2130    22.2120 C.3   1 LIG   0.0000 
 42 C42      9.5800    -0.7820    21.8230 C.2   1 LIG   0.0000 
 43 C43      8.7220     0.1100    21.2550 C.2   1 LIG   0.0000 
 44 H44      7.7640    -0.0510    21.0170 H     1 LIG   0.0000 
 45 O45      9.3960     1.2220    21.0820 O.3   1 LIG   0.0000 
 46 C46     10.6390     1.1090    21.5020 C.2   1 LIG   0.0000 
 47 H47     11.3320     1.8300    21.4680 H     1 LIG   0.0000 
 48 C48     10.8280    -0.1500    21.9940 C.2   1 LIG   0.0000 
 49 CL49    12.3150    -0.8390    22.6900 Cl    1 LIG   0.0000 
 50 C50      7.8810    -2.5090    21.6150 C.3   1 LIG   0.0000 
 51 H51      7.2300    -1.8260    21.9480 H     1 LIG   0.0000 
 52 H52      7.9460    -2.4500    20.6190 H     1 LIG   0.0000 
 53 H53      9.9330    -2.8440    21.8480 H     1 LIG   0.0000 
@<TRIPOS>BOND
  1   1   2  2   
  2   2   3  1   
  3   2   7  am  
  4   3   4  1   
  5   3   5  1   
  6   3   6  1   
  7   7   8  1   
  8   7  50  1   
  9   8   9  1   
 10   8  10  1   
 11   8  11  1   
 12  11  12  ar  
 13  11  40  ar  
 14  12  13  1   
 15  12  34  ar  
 16  13  14  1   
 17  14  15  1   
 18  14  16  1   
 19  14  17  1   
 20  17  18  1   
 21  17  19  1   
 22  17  20  1   
 23  20  21  1   
 24  20  31  1   
 25  21  22  1   
 26  21  23  1   
 27  21  24  1   
 28  24  25  1   
 29  24  26  1   
 30  24  27  1   
 31  27  28  1   
 32  28  29  1   
 33  28  30  1   
 34  28  31  1   
 35  31  32  1   
 36  31  33  1   
 37  34  35  1   
 38  34  36  ar  
 39  36  37  1   
 40  36  38  ar  
 41  38  39  1   
 42  38  40  ar  
 43  40  41  1   
 44  41  42  1   
 45  41  50  1   
 46  41  53  1   
 47  42  43  2   
 48  42  48  1   
 49  43  44  1   
 50  43  45  1   
 51  45  46  1   
 52  46  47  1   
 53  46  48  2   
 54  48  49  1   
 55  50  51  1   
 56  50  52  1   
@<TRIPOS>SUBSTRUCTURE
  1 LIG  11 GROUP 4 **** **** 0
@<TRIPOS>PROPERTY_DATA
index	|	ligand542
Name	|	SEA-TRI-388-1
ChemPlp	|	-96.7877
MM-GBSA Nwat=0	|	-19.4929
STDEV0	|	3.0754
MM-GBSA Nwat=30	|	-31.2231
STDEV30	|	5.0957
MM-GBSA Nwat=60	|	-42.2557
STDEV60	|	4.8075
ST.DEV < 10%	|	N
RMSD LIG < 2	|	
DIST < 5	|	
DIST < 3.5	|	N

# MOE 2019.01 (io_trps.svl 2018.10)

@<TRIPOS>MOLECULE
ligand069
42 44 1 0 0 
SMALL
USER_CHARGES


@<TRIPOS>ATOM
  1 O1       5.2000    -3.8360    21.2320 O.2   1 LIG   0.0000 
  2 C2       5.9780    -2.9790    20.9150 C.2   1 LIG   0.0000 
  3 C3       5.8020    -2.2440    19.5960 C.3   1 LIG   0.0000 
  4 CL6      5.5040    -0.5180    19.9150 Cl    1 LIG   0.0000 
  5 N7       7.0480    -2.6570    21.7580 N.am  1 LIG   0.0000 
  6 C8       7.9900    -1.6060    21.3410 C.3   1 LIG   0.0000 
  7 C11      9.4010    -1.8800    21.8430 C.3   1 LIG   0.0000 
  8 N14      9.4220    -2.3270    23.2470 N.4   1 LIG   1.0000 
  9 C15     10.8240    -2.6300    23.5700 C.3   1 LIG   0.0000 
 10 C18     11.6600    -1.3680    23.4340 C.ar  1 LIG   0.0000 
 11 C19     12.8450    -1.3940    22.7060 C.ar  1 LIG   0.0000 
 12 C21     13.5970    -0.2300    22.5920 C.ar  1 LIG   0.0000 
 13 C23     13.1780     0.9520    23.1960 C.ar  1 LIG   0.0000 
 14 C25     11.9900     0.9570    23.9200 C.ar  1 LIG   0.0000 
 15 CL26    11.4470     2.4640    24.6960 Cl    1 LIG   0.0000 
 16 C27     11.2230    -0.1970    24.0460 C.ar  1 LIG   0.0000 
 17 C29      8.6470    -3.5690    23.4130 C.3   1 LIG   0.0000 
 18 C30      8.6920    -4.0650    24.8510 C.2   1 LIG   0.0000 
 19 C31      9.1000    -5.2870    25.2870 C.2   1 LIG   0.0000 
 20 C33      9.0250    -5.4290    26.7000 C.2   1 LIG   0.0000 
 21 C35      8.5610    -4.3520    27.3950 C.2   1 LIG   0.0000 
 22 S37      8.2230    -3.1680    26.2190 S.3   1 LIG   0.0000 
 23 C38      7.1870    -3.3900    23.0270 C.3   1 LIG   0.0000 
 24 H19     13.1520    -2.2400    22.2700 H     1 LIG   0.0000 
 25 H21     14.4500    -0.2420    22.0700 H     1 LIG   0.0000 
 26 H23     13.7230     1.7860    23.1100 H     1 LIG   0.0000 
 27 H27     10.3700    -0.1840    24.5680 H     1 LIG   0.0000 
 28 H31      9.4210    -6.0110    24.6760 H     1 LIG   0.0000 
 29 H33      9.2980    -6.2740    27.1600 H     1 LIG   0.0000 
 30 H35      8.4440    -4.2740    28.3850 H     1 LIG   0.0000 
 31 H31      6.6310    -2.3430    19.0460 H     1 LIG   0.0000 
 32 H32      5.0250    -2.6300    19.1000 H     1 LIG   0.0000 
 33 H81      7.6800    -0.7290    21.7080 H     1 LIG   0.0000 
 34 H82      8.0050    -1.5630    20.3420 H     1 LIG   0.0000 
 35 H111     9.8120    -2.5920    21.2740 H     1 LIG   0.0000 
 36 H112     9.9380    -1.0400    21.7660 H     1 LIG   0.0000 
 37 H14      9.0690    -1.6100    23.8490 H     1 LIG   0.0000 
 38 H151    11.1680    -3.3270    22.9400 H     1 LIG   0.0000 
 39 H152    10.8830    -2.9700    24.5080 H     1 LIG   0.0000 
 40 H29      9.0470    -4.2720    22.8240 H     1 LIG   0.0000 
 41 H381     6.7640    -4.2920    22.9290 H     1 LIG   0.0000 
 42 H382     6.7200    -2.8800    23.7490 H     1 LIG   0.0000 
@<TRIPOS>BOND
  1   1   2  2   
  2   2   3  1   
  3   2   5  am  
  4   3   4  1   
  5   3  31  1   
  6   3  32  1   
  7   5   6  1   
  8   5  23  1   
  9   6   7  1   
 10   6  33  1   
 11   6  34  1   
 12   7   8  1   
 13   7  35  1   
 14   7  36  1   
 15   8   9  1   
 16   8  17  1   
 17   8  37  1   
 18   9  10  1   
 19   9  38  1   
 20   9  39  1   
 21  10  11  ar  
 22  10  16  ar  
 23  11  12  ar  
 24  11  24  1   
 25  12  13  ar  
 26  12  25  1   
 27  13  14  ar  
 28  13  26  1   
 29  14  15  1   
 30  14  16  ar  
 31  16  27  1   
 32  17  18  1   
 33  17  23  1   
 34  17  40  1   
 35  18  19  2   
 36  18  22  1   
 37  19  20  1   
 38  19  28  1   
 39  20  21  2   
 40  20  29  1   
 41  21  22  1   
 42  21  30  1   
 43  23  41  1   
 44  23  42  1   
@<TRIPOS>SUBSTRUCTURE
  1 LIG   8 GROUP 4 **** **** 0
@<TRIPOS>PROPERTY_DATA
index	|	ligand069
Name	|	DAN-LON-a5f-9
ChemPlp	|	-92.5962
MM-GBSA Nwat=0	|	-15.795
STDEV0	|	3.5765
MM-GBSA Nwat=30	|	-31.1084
STDEV30	|	5.7767
MM-GBSA Nwat=60	|	-31.5662
STDEV60	|	6.7472
ST.DEV < 10%	|	N
RMSD LIG < 2	|	
DIST < 5	|	
DIST < 3.5	|	N

# MOE 2019.01 (io_trps.svl 2018.10)

@<TRIPOS>MOLECULE
ligand514
55 57 1 0 0 
SMALL
NO_CHARGES


@<TRIPOS>ATOM
  1 O1       5.5000    -3.8420    20.0900 O.2   1 LIG   0.0000 
  2 C2       6.5400    -3.8640    20.6890 C.2   1 LIG   0.0000 
  3 C3       7.2990    -5.1710    20.8470 C.3   1 LIG   0.0000 
  4 CL6      6.4260    -6.2310    21.9790 Cl    1 LIG   0.0000 
  5 N7       7.0530    -2.6860    21.2430 N.am  1 LIG   0.0000 
  6 C8       8.3330    -2.7540    21.9660 C.3   1 LIG   0.0000 
  7 C11      9.1400    -1.4730    21.8160 C.3   1 LIG   0.0000 
  8 C14      8.2910    -0.2270    22.0270 C.3   1 LIG   0.0000 
  9 C15      9.1880     0.9750    21.7800 C.2   1 LIG   0.0000 
 10 O16      9.0340     1.6470    20.7980 O.2   1 LIG   0.0000 
 11 N17     10.1930     1.2980    22.6970 N.am  1 LIG   0.0000 
 12 C18     11.0450     2.4680    22.4290 C.3   1 LIG   0.0000 
 13 C21     12.4550     2.2810    22.9720 C.3   1 LIG   0.0000 
 14 C24     12.4560     1.7430    24.3950 C.3   1 LIG   0.0000 
 15 C27     11.8000     0.3710    24.3440 C.3   1 LIG   0.0000 
 16 C30     10.3490     0.4450    23.8870 C.3   1 LIG   0.0000 
 17 C33      7.2010    -0.2240    20.9630 C.3   1 LIG   0.0000 
 18 C34      6.3340     1.0190    21.0710 C.3   1 LIG   0.0000 
 19 C37      5.1590     0.9020    20.1140 C.3   1 LIG   0.0000 
 20 C40      4.1140     1.9490    20.4640 C.ar  1 LIG   0.0000 
 21 C41      4.2330     2.6740    21.6450 C.ar  1 LIG   0.0000 
 22 C43      3.2740     3.6300    21.9620 C.ar  1 LIG   0.0000 
 23 C45      2.2060     3.8570    21.0990 C.ar  1 LIG   0.0000 
 24 C47      2.0980     3.1270    19.9220 C.ar  1 LIG   0.0000 
 25 C49      3.0500     2.1680    19.5940 C.ar  1 LIG   0.0000 
 26 C51      6.2900    -1.4390    21.0700 C.3   1 LIG   0.0000 
 27 H41      5.0020     2.5080    22.2620 H     1 LIG   0.0000 
 28 H43      3.3520     4.1550    22.8090 H     1 LIG   0.0000 
 29 H45      1.5170     4.5450    21.3260 H     1 LIG   0.0000 
 30 H47      1.3290     3.2940    19.3050 H     1 LIG   0.0000 
 31 H49      2.9710     1.6430    18.7470 H     1 LIG   0.0000 
 32 H31      7.3740    -5.6220    19.9580 H     1 LIG   0.0000 
 33 H32      8.2140    -4.9840    21.2030 H     1 LIG   0.0000 
 34 H81      8.8690    -3.5170    21.6050 H     1 LIG   0.0000 
 35 H82      8.1480    -2.9060    22.9370 H     1 LIG   0.0000 
 36 H111     9.8790    -1.4760    22.4900 H     1 LIG   0.0000 
 37 H112     9.5300    -1.4440    20.8950 H     1 LIG   0.0000 
 38 H14      7.9000    -0.2060    22.9470 H     1 LIG   0.0000 
 39 H181    10.6360     3.2710    22.8620 H     1 LIG   0.0000 
 40 H182    11.0950     2.6110    21.4410 H     1 LIG   0.0000 
 41 H211    12.9240     3.1640    22.9610 H     1 LIG   0.0000 
 42 H212    12.9440     1.6360    22.3840 H     1 LIG   0.0000 
 43 H241    11.9350     2.3520    24.9940 H     1 LIG   0.0000 
 44 H242    13.3930     1.6640    24.7330 H     1 LIG   0.0000 
 45 H271    12.3090    -0.2070    23.7060 H     1 LIG   0.0000 
 46 H272    11.8290    -0.0350    25.2580 H     1 LIG   0.0000 
 47 H301    10.0310    -0.4770    23.6680 H     1 LIG   0.0000 
 48 H302     9.7950     0.8220    24.6300 H     1 LIG   0.0000 
 49 H33      7.6360    -0.2320    20.0630 H     1 LIG   0.0000 
 50 H341     6.8760     1.8250    20.8350 H     1 LIG   0.0000 
 51 H342     5.9940     1.1080    22.0070 H     1 LIG   0.0000 
 52 H371     5.4760     1.0470    19.1770 H     1 LIG   0.0000 
 53 H372     4.7560    -0.0100    20.1910 H     1 LIG   0.0000 
 54 H511     5.6840    -1.3200    21.8560 H     1 LIG   0.0000 
 55 H512     5.7440    -1.5070    20.2350 H     1 LIG   0.0000 
@<TRIPOS>BOND
  1   1   2  2   
  2   2   3  1   
  3   2   5  am  
  4   3   4  1   
  5   3  32  1   
  6   3  33  1   
  7   5   6  1   
  8   5  26  1   
  9   6   7  1   
 10   6  34  1   
 11   6  35  1   
 12   7   8  1   
 13   7  36  1   
 14   7  37  1   
 15   8   9  1   
 16   8  17  1   
 17   8  38  1   
 18   9  10  2   
 19   9  11  am  
 20  11  12  1   
 21  11  16  1   
 22  12  13  1   
 23  12  39  1   
 24  12  40  1   
 25  13  14  1   
 26  13  41  1   
 27  13  42  1   
 28  14  15  1   
 29  14  43  1   
 30  14  44  1   
 31  15  16  1   
 32  15  45  1   
 33  15  46  1   
 34  16  47  1   
 35  16  48  1   
 36  17  18  1   
 37  17  26  1   
 38  17  49  1   
 39  18  19  1   
 40  18  50  1   
 41  18  51  1   
 42  19  20  1   
 43  19  52  1   
 44  19  53  1   
 45  20  21  ar  
 46  20  25  ar  
 47  21  22  ar  
 48  21  27  1   
 49  22  23  ar  
 50  22  28  1   
 51  23  24  ar  
 52  23  29  1   
 53  24  25  ar  
 54  24  30  1   
 55  25  31  1   
 56  26  54  1   
 57  26  55  1   
@<TRIPOS>SUBSTRUCTURE
  1 LIG  17 GROUP 4 **** **** 0
@<TRIPOS>PROPERTY_DATA
index	|	ligand514
Name	|	PAU-WEI-c6d-1
ChemPlp	|	-93.7269
MM-GBSA Nwat=0	|	-11.9329
STDEV0	|	2.6966
MM-GBSA Nwat=30	|	-30.1957
STDEV30	|	6.8634
MM-GBSA Nwat=60	|	-54.3111
STDEV60	|	6.2398
ST.DEV < 10%	|	N
RMSD LIG < 2	|	
DIST < 5	|	
DIST < 3.5	|	N

# MOE 2019.01 (io_trps.svl 2018.10)

@<TRIPOS>MOLECULE
ligand527
38 40 1 0 0 
SMALL
NO_CHARGES


@<TRIPOS>ATOM
  1 O1       5.3010    -4.2360    21.4630 O.2   1 LIG   0.0000 
  2 C2       6.0250    -3.3400    21.1300 C.2   1 LIG   0.0000 
  3 C3       5.8000    -2.6340    19.8020 C.3   1 LIG   0.0000 
  4 CL6      5.8010    -0.8730    20.0580 Cl    1 LIG   0.0000 
  5 N7       7.0780    -2.9430    21.9630 N.am  1 LIG   0.0000 
  6 C8       7.9510    -1.8420    21.5250 C.3   1 LIG   0.0000 
  7 C11      9.3790    -2.0290    22.0150 C.3   1 LIG   0.0000 
  8 N14      9.4340    -2.4290    23.4310 N.3   1 LIG   0.0000 
  9 C15     10.8540    -2.5500    23.7950 C.3   1 LIG   0.0000 
 10 C18     11.5650    -1.2370    23.5040 C.2   1 LIG   0.0000 
 11 C19     12.6380    -1.0570    22.6880 C.2   1 LIG   0.0000 
 12 C21     13.1090     0.2790    22.5950 C.2   1 LIG   0.0000 
 13 C23     12.3980     1.1660    23.3420 C.2   1 LIG   0.0000 
 14 BR24    12.7010     3.0960    23.4950 Br    1 LIG   0.0000 
 15 S25     11.1720     0.2950    24.1310 S.3   1 LIG   0.0000 
 16 C26      8.7460    -3.7180    23.6220 C.3   1 LIG   0.0000 
 17 C27      8.8290    -4.1820    25.0680 C.2   1 LIG   0.0000 
 18 C28      9.4020    -5.3420    25.5080 C.2   1 LIG   0.0000 
 19 N30      9.2440    -5.3590    26.8660 N.pl3 1 LIG   0.0000 
 20 C31      8.5920    -4.2180    27.2470 C.2   1 LIG   0.0000 
 21 N33      8.3470    -3.5210    26.1580 N.2   1 LIG   0.0000 
 22 C35      7.2740    -3.6420    23.2440 C.3   1 LIG   0.0000 
 23 H19     13.0660    -1.8120    22.1900 H     1 LIG   0.0000 
 24 H21     13.8920     0.5440    22.0320 H     1 LIG   0.0000 
 25 H28      9.8480    -6.0400    24.9480 H     1 LIG   0.0000 
 26 H31      8.3470    -3.9610    28.1810 H     1 LIG   0.0000 
 27 H31      6.5320    -2.8800    19.1660 H     1 LIG   0.0000 
 28 H32      4.9190    -2.9150    19.4210 H     1 LIG   0.0000 
 29 H81      7.5940    -0.9800    21.8870 H     1 LIG   0.0000 
 30 H82      7.9520    -1.8070    20.5250 H     1 LIG   0.0000 
 31 H111     9.8180    -2.7380    21.4630 H     1 LIG   0.0000 
 32 H112     9.8730    -1.1670    21.9050 H     1 LIG   0.0000 
 33 H151    11.2740    -3.2820    23.2590 H     1 LIG   0.0000 
 34 H152    10.9320    -2.7620    24.7690 H     1 LIG   0.0000 
 35 H26      9.1880    -4.4020    23.0420 H     1 LIG   0.0000 
 36 H351     6.9110    -4.5700    23.1650 H     1 LIG   0.0000 
 37 H352     6.7800    -3.1500    23.9610 H     1 LIG   0.0000 
 38 H        9.5540    -6.0850    27.4790 H     1 LIG   0.0000 
@<TRIPOS>BOND
  1   1   2  2   
  2   2   3  1   
  3   2   5  am  
  4   3   4  1   
  5   3  27  1   
  6   3  28  1   
  7   5   6  1   
  8   5  22  1   
  9   6   7  1   
 10   6  29  1   
 11   6  30  1   
 12   7   8  1   
 13   7  31  1   
 14   7  32  1   
 15   8   9  1   
 16   8  16  1   
 17   9  10  1   
 18   9  33  1   
 19   9  34  1   
 20  10  11  2   
 21  10  15  1   
 22  11  12  1   
 23  11  23  1   
 24  12  13  2   
 25  12  24  1   
 26  13  14  1   
 27  13  15  1   
 28  16  17  1   
 29  16  22  1   
 30  16  35  1   
 31  17  18  2   
 32  17  21  1   
 33  18  19  1   
 34  18  25  1   
 35  19  20  1   
 36  19  38  1   
 37  20  21  2   
 38  20  26  1   
 39  22  36  1   
 40  22  37  1   
@<TRIPOS>SUBSTRUCTURE
  1 LIG   8 GROUP 4 **** **** 0
@<TRIPOS>PROPERTY_DATA
index	|	ligand527
Name	|	SAL-INS-1c7-12
ChemPlp	|	-91.8561
MM-GBSA Nwat=0	|	-12.8929
STDEV0	|	4.1186
MM-GBSA Nwat=30	|	-28.2006
STDEV30	|	10.5421
MM-GBSA Nwat=60	|	-29.1725
STDEV60	|	9.662
ST.DEV < 10%	|	N
RMSD LIG < 2	|	
DIST < 5	|	
DIST < 3.5	|	N

# MOE 2019.01 (io_trps.svl 2018.10)

@<TRIPOS>MOLECULE
ligand039
46 47 1 0 0 
SMALL
NO_CHARGES


@<TRIPOS>ATOM
  1 C1       5.5660    -7.7320    33.5680 C.2   1 LIG   0.0000 
  2 C4       5.8410    -6.5080    33.2270 C.2   1 LIG   0.0000 
  3 C6       6.0940    -6.1630    31.7690 C.2   1 LIG   0.0000 
  4 O7       6.3430    -5.0330    31.4540 O.2   1 LIG   0.0000 
  5 N8       6.0360    -7.1430    30.8130 N.am  1 LIG   0.0000 
  6 C10      6.2640    -6.8320    29.4980 C.2   1 LIG   0.0000 
  7 O11      7.3790    -6.8700    29.0570 O.2   1 LIG   0.0000 
  8 C12      5.1040    -6.4400    28.5980 C.3   1 LIG   0.0000 
  9 O15      5.5440    -6.4010    27.2490 O.3   1 LIG   0.0000 
 10 C16      4.6510    -6.2140    26.2530 C.ar  1 LIG   0.0000 
 11 C17      3.3240    -5.9390    26.5660 C.ar  1 LIG   0.0000 
 12 C19      2.4050    -5.7460    25.5400 C.ar  1 LIG   0.0000 
 13 C21      2.8160    -5.8300    24.2130 C.ar  1 LIG   0.0000 
 14 CL22     1.6400    -5.5830    22.9000 Cl    1 LIG   0.0000 
 15 C23      4.1460    -6.1060    23.9130 C.ar  1 LIG   0.0000 
 16 C24      4.6090    -6.2000    22.4680 C.3   1 LIG   0.0000 
 17 C27      5.5690    -5.0590    22.1680 C.ar  1 LIG   0.0000 
 18 N28      5.1320    -3.8090    21.9430 N.ar  1 LIG   0.0000 
 19 C29      5.9660    -2.7900    21.6760 C.ar  1 LIG   0.0000 
 20 N30      5.5000    -1.4900    21.4420 N.pl3 1 LIG   0.0000 
 21 C32      6.3940    -0.4850    20.8500 C.3   1 LIG   0.0000 
 22 C35      5.8270    -0.0250    19.5170 C.3   1 LIG   0.0000 
 23 C39      7.3370    -3.0160    21.6260 C.ar  1 LIG   0.0000 
 24 C41      7.8190    -4.3010    21.8560 C.ar  1 LIG   0.0000 
 25 C43      6.9320    -5.3380    22.1300 C.ar  1 LIG   0.0000 
 26 F44      7.3990    -6.5640    22.3490 F     1 LIG   0.0000 
 27 C45      5.0740    -6.3000    24.9310 C.ar  1 LIG   0.0000 
 28 H17      3.0320    -5.8810    27.5210 H     1 LIG   0.0000 
 29 H19      1.4480    -5.5480    25.7550 H     1 LIG   0.0000 
 30 H45      6.0300    -6.4980    24.7150 H     1 LIG   0.0000 
 31 H39      7.9680    -2.2660    21.4280 H     1 LIG   0.0000 
 32 H41      8.8020    -4.4800    21.8240 H     1 LIG   0.0000 
 33 H121     4.3690    -7.1120    28.6900 H     1 LIG   0.0000 
 34 H122     4.7650    -5.5380    28.8650 H     1 LIG   0.0000 
 35 H241     5.0740    -7.0740    22.3240 H     1 LIG   0.0000 
 36 H242     3.8180    -6.1390    21.8600 H     1 LIG   0.0000 
 37 H321     7.2990    -0.8860    20.7070 H     1 LIG   0.0000 
 38 H322     6.4700     0.2980    21.4680 H     1 LIG   0.0000 
 39 H351     6.4350     0.6590    19.1140 H     1 LIG   0.0000 
 40 H352     5.7510    -0.8080    18.9000 H     1 LIG   0.0000 
 41 H353     4.9220     0.3760    19.6600 H     1 LIG   0.0000 
 42 H11      5.4000    -7.9590    34.5270 H     1 LIG   0.0000 
 43 H12      5.5210    -8.4470    32.8700 H     1 LIG   0.0000 
 44 H4       5.8870    -5.7940    33.9250 H     1 LIG   0.0000 
 45 H8       5.8280    -8.0860    31.0750 H     1 LIG   0.0000 
 46 H30      4.5590    -1.2460    21.6780 H     1 LIG   0.0000 
@<TRIPOS>BOND
  1   1   2  2   
  2   1  42  1   
  3   1  43  1   
  4   2   3  1   
  5   2  44  1   
  6   3   4  2   
  7   3   5  am  
  8   5   6  am  
  9   5  45  1   
 10   6   7  2   
 11   6   8  1   
 12   8   9  1   
 13   8  33  1   
 14   8  34  1   
 15   9  10  1   
 16  10  11  ar  
 17  10  27  ar  
 18  11  12  ar  
 19  11  28  1   
 20  12  13  ar  
 21  12  29  1   
 22  13  14  1   
 23  13  15  ar  
 24  15  16  1   
 25  15  27  ar  
 26  16  17  1   
 27  16  35  1   
 28  16  36  1   
 29  17  18  ar  
 30  17  25  ar  
 31  18  19  ar  
 32  19  20  1   
 33  19  23  ar  
 34  20  21  1   
 35  20  46  1   
 36  21  22  1   
 37  21  37  1   
 38  21  38  1   
 39  22  39  1   
 40  22  40  1   
 41  22  41  1   
 42  23  24  ar  
 43  23  31  1   
 44  24  25  ar  
 45  24  32  1   
 46  25  26  1   
 47  27  30  1   
@<TRIPOS>SUBSTRUCTURE
  1 LIG  27 GROUP 4 **** **** 0
@<TRIPOS>PROPERTY_DATA
index	|	ligand039
Name	|	BEN-VAN-ed8-20
ChemPlp	|	-92.4317
MM-GBSA Nwat=0	|	-11.617
STDEV0	|	2.4616
MM-GBSA Nwat=30	|	-27.5961
STDEV30	|	7.7327
MM-GBSA Nwat=60	|	-51.439
STDEV60	|	7.9102
ST.DEV < 10%	|	N
RMSD LIG < 2	|	
DIST < 5	|	
DIST < 3.5	|	N

# MOE 2019.01 (io_trps.svl 2018.10)

@<TRIPOS>MOLECULE
ligand163
73 76 1 0 0 
SMALL
NO_CHARGES


@<TRIPOS>ATOM
  1 C1       1.0770     7.4520    19.2820 C.3   1 LIG   0.0000 
  2 C5       1.9630     6.8410    20.3560 C.3   1 LIG   0.0000 
  3 N6       3.3020     7.4430    20.2860 N.3   1 LIG   0.0000 
  4 N9       2.0650     5.3910    20.1400 N.3   1 LIG   0.0000 
  5 C11      1.5820     4.6820    21.3350 C.3   1 LIG   0.0000 
  6 C12      0.3640     3.8490    20.9720 C.3   1 LIG   0.0000 
  7 C15      0.7640     2.7770    19.9710 C.2   1 LIG   0.0000 
  8 N16      1.3790     3.1290    18.7990 N.am  1 LIG   0.0000 
  9 O19      0.5400     1.6220    20.2080 O.2   1 LIG   0.0000 
 10 C20      2.6800     3.7730    21.8620 C.2   1 LIG   0.0000 
 11 O21      2.4380     2.9850    22.7340 O.2   1 LIG   0.0000 
 12 N22      3.9450     3.8530    21.3420 N.am  1 LIG   0.0000 
 13 C24      5.0060     2.9730    21.8530 C.3   1 LIG   0.0000 
 14 C25      6.1950     3.8450    22.2300 C.3   1 LIG   0.0000 
 15 C28      7.3860     3.0000    22.6590 C.3   1 LIG   0.0000 
 16 C31      7.8240     2.1770    21.4550 C.3   1 LIG   0.0000 
 17 C32      9.0110     1.3030    21.8170 C.2   1 LIG   0.0000 
 18 N33      8.9990     0.0680    22.2650 N.2   1 LIG   0.0000 
 19 C34     10.2280    -0.4990    22.5220 C.ar  1 LIG   0.0000 
 20 C35     10.6260    -1.7460    22.9890 C.ar  1 LIG   0.0000 
 21 C36      9.6490    -2.7660    23.3160 C.ar  1 LIG   0.0000 
 22 C37      9.9970    -3.8180    24.1570 C.ar  1 LIG   0.0000 
 23 C39      9.0460    -4.7870    24.4600 C.ar  1 LIG   0.0000 
 24 C41      7.7610    -4.7140    23.9330 C.ar  1 LIG   0.0000 
 25 C43      7.4340    -3.6540    23.0940 C.ar  1 LIG   0.0000 
 26 S44      5.8280    -3.5570    22.4300 S.o2  1 LIG   0.0000 
 27 N45      5.4940    -2.0090    22.0430 N.am  1 LIG   0.0000 
 28 O48      5.7470    -4.3750    21.2470 O.2   1 LIG   0.0000 
 29 O49      4.8770    -4.0250    23.4040 O.2   1 LIG   0.0000 
 30 C50      8.3690    -2.6750    22.7780 C.ar  1 LIG   0.0000 
 31 C52     11.9690    -2.0680    23.1620 C.ar  1 LIG   0.0000 
 32 C54     12.9700    -1.1460    22.8710 C.ar  1 LIG   0.0000 
 33 C56     12.6440     0.1140    22.4000 C.ar  1 LIG   0.0000 
 34 C58     11.2870     0.3430    22.2600 C.ar  1 LIG   0.0000 
 35 S59     10.6300     1.8050    21.7040 S.3   1 LIG   0.0000 
 36 C60      6.7180     1.2690    20.9320 C.3   1 LIG   0.0000 
 37 N63      5.4090     1.9440    20.8800 N.am  1 LIG   0.0000 
 38 C64      4.5140     1.5910    19.8620 C.2   1 LIG   0.0000 
 39 O65      3.4410     2.1250    19.7960 O.2   1 LIG   0.0000 
 40 C66      4.9000     0.5320    18.8430 C.3   1 LIG   0.0000 
 41 CL69     6.4560     0.9680    18.0960 Cl    1 LIG   0.0000 
 42 H52     12.2180    -2.9750    23.5020 H     1 LIG   0.0000 
 43 H54     13.9300    -1.3940    23.0030 H     1 LIG   0.0000 
 44 H56     13.3340     0.8030    22.1780 H     1 LIG   0.0000 
 45 H37     10.9190    -3.8760    24.5390 H     1 LIG   0.0000 
 46 H39      9.2900    -5.5460    25.0640 H     1 LIG   0.0000 
 47 H41      7.0820    -5.4140    24.1550 H     1 LIG   0.0000 
 48 H50      8.1250    -1.9160    22.1740 H     1 LIG   0.0000 
 49 H11      1.0070     8.4380    19.4290 H     1 LIG   0.0000 
 50 H12      1.4750     7.2760    18.3820 H     1 LIG   0.0000 
 51 H13      0.1660     7.0420    19.3290 H     1 LIG   0.0000 
 52 H5       1.5640     7.0170    21.2560 H     1 LIG   0.0000 
 53 H11      1.3340     5.3480    22.0390 H     1 LIG   0.0000 
 54 H121    -0.0010     3.4160    21.7960 H     1 LIG   0.0000 
 55 H122    -0.3340     4.4390    20.5670 H     1 LIG   0.0000 
 56 H24      4.6720     2.5170    22.6780 H     1 LIG   0.0000 
 57 H251     5.9330     4.4450    22.9850 H     1 LIG   0.0000 
 58 H252     6.4570     4.3980    21.4390 H     1 LIG   0.0000 
 59 H281     8.1340     3.5920    22.9580 H     1 LIG   0.0000 
 60 H282     7.1210     2.3940    23.4080 H     1 LIG   0.0000 
 61 H31      8.0970     2.8010    20.7230 H     1 LIG   0.0000 
 62 H601     6.9600     0.9670    20.0100 H     1 LIG   0.0000 
 63 H602     6.6440     0.4740    21.5350 H     1 LIG   0.0000 
 64 H661     4.9860    -0.3540    19.2990 H     1 LIG   0.0000 
 65 H662     4.1950     0.4770    18.1360 H     1 LIG   0.0000 
 66 H61      3.2320     8.4300    20.4330 H     1 LIG   0.0000 
 67 H62      3.8850     7.0410    20.9930 H     1 LIG   0.0000 
 68 H9       3.0200     5.1460    19.9700 H     1 LIG   0.0000 
 69 H161     1.5660     4.0920    18.6020 H     1 LIG   0.0000 
 70 H162     1.6420     2.4240    18.1400 H     1 LIG   0.0000 
 71 H22      4.1460     4.5100    20.6160 H     1 LIG   0.0000 
 72 H451     5.4100    -1.9240    21.0500 H     1 LIG   0.0000 
 73 H452     4.6340    -1.7360    22.4750 H     1 LIG   0.0000 
@<TRIPOS>BOND
  1   1   2  1   
  2   1  49  1   
  3   1  50  1   
  4   1  51  1   
  5   2   3  1   
  6   2   4  1   
  7   2  52  1   
  8   3  66  1   
  9   3  67  1   
 10   4   5  1   
 11   4  68  1   
 12   5   6  1   
 13   5  10  1   
 14   5  53  1   
 15   6   7  1   
 16   6  54  1   
 17   6  55  1   
 18   7   8  am  
 19   7   9  2   
 20   8  69  1   
 21   8  70  1   
 22  10  11  2   
 23  10  12  am  
 24  12  13  1   
 25  12  71  1   
 26  13  14  1   
 27  13  37  1   
 28  13  56  1   
 29  14  15  1   
 30  14  57  1   
 31  14  58  1   
 32  15  16  1   
 33  15  59  1   
 34  15  60  1   
 35  16  17  1   
 36  16  36  1   
 37  16  61  1   
 38  17  18  2   
 39  17  35  1   
 40  18  19  1   
 41  19  20  ar  
 42  19  34  ar  
 43  20  21  1   
 44  20  31  ar  
 45  21  22  ar  
 46  21  30  ar  
 47  22  23  ar  
 48  22  45  1   
 49  23  24  ar  
 50  23  46  1   
 51  24  25  ar  
 52  24  47  1   
 53  25  26  1   
 54  25  30  ar  
 55  26  27  am  
 56  26  28  2   
 57  26  29  2   
 58  27  72  1   
 59  27  73  1   
 60  30  48  1   
 61  31  32  ar  
 62  31  42  1   
 63  32  33  ar  
 64  32  43  1   
 65  33  34  ar  
 66  33  44  1   
 67  34  35  1   
 68  36  37  1   
 69  36  62  1   
 70  36  63  1   
 71  37  38  am  
 72  38  39  2   
 73  38  40  1   
 74  40  41  1   
 75  40  64  1   
 76  40  65  1   
@<TRIPOS>SUBSTRUCTURE
  1 LIG  36 GROUP 4 **** **** 0
@<TRIPOS>PROPERTY_DATA
index	|	ligand163
Name	|	DAV-CRI-f9b-4
ChemPlp	|	-106.748
MM-GBSA Nwat=0	|	1.5825
STDEV0	|	9.0575
MM-GBSA Nwat=30	|	-26.5713
STDEV30	|	18.9664
MM-GBSA Nwat=60	|	-74.3935
STDEV60	|	15.9245
ST.DEV < 10%	|	N
RMSD LIG < 2	|	
DIST < 5	|	
DIST < 3.5	|	N

# MOE 2019.01 (io_trps.svl 2018.10)

@<TRIPOS>MOLECULE
ligand376
55 57 1 0 0 
SMALL
NO_CHARGES


@<TRIPOS>ATOM
  1 N1      -0.1190   -11.3030    25.1810 N.1   1 LIG   0.0000 
  2 C2       0.4020   -10.3620    24.8030 C.1   1 LIG   0.0000 
  3 C3       1.0970    -9.1080    24.2990 C.ar  1 LIG   0.0000 
  4 C4       0.6690    -8.5100    23.1190 C.ar  1 LIG   0.0000 
  5 C6       1.2990    -7.3620    22.6490 C.ar  1 LIG   0.0000 
  6 C8       2.3570    -6.8300    23.3800 C.ar  1 LIG   0.0000 
  7 N9       2.9800    -5.6740    22.8940 N.pl3 1 LIG   0.0000 
  8 C11      4.1770    -5.1480    23.5640 C.3   1 LIG   0.0000 
  9 C14      5.3710    -6.0300    23.2350 C.3   1 LIG   0.0000 
 10 O17      5.7780    -5.7940    21.8950 O.3   1 LIG   0.0000 
 11 C18      6.2530    -4.5820    21.5360 C.ar  1 LIG   0.0000 
 12 N19      5.6200    -3.8320    20.6200 N.ar  1 LIG   0.0000 
 13 C20      6.0730    -2.6250    20.2480 C.ar  1 LIG   0.0000 
 14 N21      5.4050    -1.8510    19.2910 N.pl3 1 LIG   0.0000 
 15 C23      5.9010    -0.5090    18.9550 C.3   1 LIG   0.0000 
 16 N26      5.9410     0.3170    20.1680 N.3   1 LIG   0.0000 
 17 C28      7.2600     0.9680    20.1990 C.3   1 LIG   0.0000 
 18 C31      7.4050     1.8850    21.4040 C.3   1 LIG   0.0000 
 19 N34      6.2130     2.7290    21.5860 N.am  1 LIG   0.0000 
 20 C35      6.3640     4.0130    22.1240 C.2   1 LIG   0.0000 
 21 O36      5.4030     4.7150    22.2800 O.2   1 LIG   0.0000 
 22 C37      7.7440     4.5160    22.5130 C.3   1 LIG   0.0000 
 23 CL40     7.8150     6.2820    22.2950 Cl    1 LIG   0.0000 
 24 C41      4.8610     2.2830    21.2150 C.3   1 LIG   0.0000 
 25 C44      4.8990     1.3460    20.0170 C.3   1 LIG   0.0000 
 26 C47      7.2340    -2.1110    20.8160 C.ar  1 LIG   0.0000 
 27 C49      7.9080    -2.8690    21.7680 C.ar  1 LIG   0.0000 
 28 C51      7.4190    -4.1170    22.1370 C.ar  1 LIG   0.0000 
 29 C52      8.1640    -4.9360    23.1780 C.1   1 LIG   0.0000 
 30 N53      8.7230    -5.5500    23.9600 N.1   1 LIG   0.0000 
 31 N54      2.7560    -7.4200    24.5170 N.ar  1 LIG   0.0000 
 32 C55      2.1600    -8.5270    24.9830 C.ar  1 LIG   0.0000 
 33 H4      -0.0930    -8.9060    22.6060 H     1 LIG   0.0000 
 34 H6       0.9970    -6.9260    21.8010 H     1 LIG   0.0000 
 35 H55      2.4840    -8.9400    25.8340 H     1 LIG   0.0000 
 36 H47      7.5790    -1.2120    20.5450 H     1 LIG   0.0000 
 37 H49      8.7450    -2.5160    22.1870 H     1 LIG   0.0000 
 38 H111     4.0310    -5.1420    24.5530 H     1 LIG   0.0000 
 39 H112     4.3540    -4.2160    23.2480 H     1 LIG   0.0000 
 40 H141     6.1260    -5.8140    23.8550 H     1 LIG   0.0000 
 41 H142     5.1150    -6.9900    23.3420 H     1 LIG   0.0000 
 42 H231     6.8210    -0.5800    18.5700 H     1 LIG   0.0000 
 43 H232     5.2910    -0.0860    18.2840 H     1 LIG   0.0000 
 44 H281     7.3750     1.5070    19.3650 H     1 LIG   0.0000 
 45 H282     7.9680     0.2630    20.2410 H     1 LIG   0.0000 
 46 H311     7.5360     1.3270    22.2240 H     1 LIG   0.0000 
 47 H312     8.2030     2.4740    21.2710 H     1 LIG   0.0000 
 48 H371     7.9240     4.2910    23.4710 H     1 LIG   0.0000 
 49 H372     8.4330     4.0810    21.9340 H     1 LIG   0.0000 
 50 H411     4.3050     3.0820    20.9870 H     1 LIG   0.0000 
 51 H412     4.4510     1.8040    21.9920 H     1 LIG   0.0000 
 52 H441     4.0100     0.8970    19.9270 H     1 LIG   0.0000 
 53 H442     5.0880     1.8800    19.1930 H     1 LIG   0.0000 
 54 H9       2.6100    -5.2070    22.0910 H     1 LIG   0.0000 
 55 H21      4.5900    -2.2110    18.8370 H     1 LIG   0.0000 
@<TRIPOS>BOND
  1   1   2  3   
  2   2   3  1   
  3   3   4  ar  
  4   3  32  ar  
  5   4   5  ar  
  6   4  33  1   
  7   5   6  ar  
  8   5  34  1   
  9   6   7  1   
 10   6  31  ar  
 11   7   8  1   
 12   7  54  1   
 13   8   9  1   
 14   8  38  1   
 15   8  39  1   
 16   9  10  1   
 17   9  40  1   
 18   9  41  1   
 19  10  11  1   
 20  11  12  ar  
 21  11  28  ar  
 22  12  13  ar  
 23  13  14  1   
 24  13  26  ar  
 25  14  15  1   
 26  14  55  1   
 27  15  16  1   
 28  15  42  1   
 29  15  43  1   
 30  16  17  1   
 31  16  25  1   
 32  17  18  1   
 33  17  44  1   
 34  17  45  1   
 35  18  19  1   
 36  18  46  1   
 37  18  47  1   
 38  19  20  am  
 39  19  24  1   
 40  20  21  2   
 41  20  22  1   
 42  22  23  1   
 43  22  48  1   
 44  22  49  1   
 45  24  25  1   
 46  24  50  1   
 47  24  51  1   
 48  25  52  1   
 49  25  53  1   
 50  26  27  ar  
 51  26  36  1   
 52  27  28  ar  
 53  27  37  1   
 54  28  29  1   
 55  29  30  3   
 56  31  32  ar  
 57  32  35  1   
@<TRIPOS>SUBSTRUCTURE
  1 LIG  12 GROUP 4 **** **** 0
@<TRIPOS>PROPERTY_DATA
index	|	ligand376
Name	|	MAK-UNK-af8-32
ChemPlp	|	-91.8319
MM-GBSA Nwat=0	|	-15.9538
STDEV0	|	4.8256
MM-GBSA Nwat=30	|	-24.9579
STDEV30	|	8.0586
MM-GBSA Nwat=60	|	-46.8387
STDEV60	|	6.8433
ST.DEV < 10%	|	N
RMSD LIG < 2	|	
DIST < 5	|	
DIST < 3.5	|	N

# MOE 2019.01 (io_trps.svl 2018.10)

@<TRIPOS>MOLECULE
ligand506
53 55 1 0 0 
SMALL
NO_CHARGES


@<TRIPOS>ATOM
  1 O1       5.4070    -3.5940    20.0800 O.2   1 LIG   0.0000 
  2 C2       6.4370    -3.7790    20.6680 C.2   1 LIG   0.0000 
  3 C3       6.8300    -5.1860    21.0880 C.3   1 LIG   0.0000 
  4 H4       7.0140    -5.7380    20.2740 H     1 LIG   0.0000 
  5 H5       7.6510    -5.1470    21.6570 H     1 LIG   0.0000 
  6 CL6      5.5000    -5.9210    22.0150 Cl    1 LIG   0.0000 
  7 N7       7.2770    -2.6990    20.9670 N.am  1 LIG   0.0000 
  8 C8       8.5350    -2.9500    21.6880 C.3   1 LIG   0.0000 
  9 H9       9.2670    -3.0990    21.0230 H     1 LIG   0.0000 
 10 H10      8.4280    -3.7670    22.2540 H     1 LIG   0.0000 
 11 C11      8.9090    -1.7760    22.5800 C.3   1 LIG   0.0000 
 12 H12      8.3150    -1.7770    23.3850 H     1 LIG   0.0000 
 13 H13      9.8610    -1.8780    22.8690 H     1 LIG   0.0000 
 14 N14      8.7580    -0.4910    21.8780 N.3   1 LIG   0.0000 
 15 C15      9.1090     0.5630    22.8380 C.3   1 LIG   0.0000 
 16 C16      8.8080     1.9230    22.2290 C.3   1 LIG   0.0000 
 17 H17      7.8500     1.9560    21.9440 H     1 LIG   0.0000 
 18 H18      9.3970     2.0710    21.4340 H     1 LIG   0.0000 
 19 C19      9.0670     3.0090    23.2610 C.3   1 LIG   0.0000 
 20 H20      8.7900     2.6830    24.1640 H     1 LIG   0.0000 
 21 H21     10.0420     3.2320    23.2710 H     1 LIG   0.0000 
 22 C22      8.2660     4.2500    22.9020 C.ar  1 LIG   0.0000 
 23 C23      8.7910     5.5080    23.1830 C.ar  1 LIG   0.0000 
 24 H24      9.6880     5.5920    23.6180 H     1 LIG   0.0000 
 25 C25      8.0630     6.6470    22.8560 C.ar  1 LIG   0.0000 
 26 H26      8.4320     7.5550    23.0550 H     1 LIG   0.0000 
 27 C27      6.8180     6.5130    22.2510 C.ar  1 LIG   0.0000 
 28 C28      6.0190     7.7540    21.8900 C.3   1 LIG   0.0000 
 29 F29      6.2410     8.0710    20.6180 F     1 LIG   0.0000 
 30 F30      4.7230     7.5140    22.0670 F     1 LIG   0.0000 
 31 F31      6.3930     8.7650    22.6700 F     1 LIG   0.0000 
 32 C32      6.2920     5.2570    21.9700 C.ar  1 LIG   0.0000 
 33 H33      5.3960     5.1730    21.5350 H     1 LIG   0.0000 
 34 C34      7.0190     4.1170    22.2990 C.ar  1 LIG   0.0000 
 35 H35      6.6490     3.2100    22.1020 H     1 LIG   0.0000 
 36 C36     10.5900     0.4740    23.1700 C.ar  1 LIG   0.0000 
 37 C37     11.0770     1.0560    24.3350 C.ar  1 LIG   0.0000 
 38 H38     10.4580     1.5350    24.9580 H     1 LIG   0.0000 
 39 C39     12.4340     0.9640    24.6240 C.ar  1 LIG   0.0000 
 40 H40     12.7900     1.3810    25.4610 H     1 LIG   0.0000 
 41 C41     13.3030     0.3010    23.7640 C.ar  1 LIG   0.0000 
 42 H42     14.2780     0.2380    23.9760 H     1 LIG   0.0000 
 43 C43     12.7960    -0.2740    22.6020 C.ar  1 LIG   0.0000 
 44 CL44    13.9000    -1.1240    21.4950 Cl    1 LIG   0.0000 
 45 C45     11.4420    -0.1940    22.2960 C.ar  1 LIG   0.0000 
 46 H46     11.0850    -0.6100    21.4590 H     1 LIG   0.0000 
 47 C47      7.3420    -0.2960    21.5300 C.3   1 LIG   0.0000 
 48 H48      7.2320     0.6070    21.1140 H     1 LIG   0.0000 
 49 H49      6.7920    -0.3490    22.3630 H     1 LIG   0.0000 
 50 C50      6.8560    -1.3530    20.5490 C.3   1 LIG   0.0000 
 51 H51      5.8570    -1.3220    20.5050 H     1 LIG   0.0000 
 52 H52      7.2350    -1.1580    19.6450 H     1 LIG   0.0000 
 53 H53      8.5730     0.4460    23.6730 H     1 LIG   0.0000 
@<TRIPOS>BOND
  1   1   2  2   
  2   2   3  1   
  3   2   7  am  
  4   3   4  1   
  5   3   5  1   
  6   3   6  1   
  7   7   8  1   
  8   7  50  1   
  9   8   9  1   
 10   8  10  1   
 11   8  11  1   
 12  11  12  1   
 13  11  13  1   
 14  11  14  1   
 15  14  15  1   
 16  14  47  1   
 17  15  16  1   
 18  15  36  1   
 19  15  53  1   
 20  16  17  1   
 21  16  18  1   
 22  16  19  1   
 23  19  20  1   
 24  19  21  1   
 25  19  22  1   
 26  22  23  ar  
 27  22  34  ar  
 28  23  24  1   
 29  23  25  ar  
 30  25  26  1   
 31  25  27  ar  
 32  27  28  1   
 33  27  32  ar  
 34  28  29  1   
 35  28  30  1   
 36  28  31  1   
 37  32  33  1   
 38  32  34  ar  
 39  34  35  1   
 40  36  37  ar  
 41  36  45  ar  
 42  37  38  1   
 43  37  39  ar  
 44  39  40  1   
 45  39  41  ar  
 46  41  42  1   
 47  41  43  ar  
 48  43  44  1   
 49  43  45  ar  
 50  45  46  1   
 51  47  48  1   
 52  47  49  1   
 53  47  50  1   
 54  50  51  1   
 55  50  52  1   
@<TRIPOS>SUBSTRUCTURE
  1 LIG  16 GROUP 4 **** **** 0
@<TRIPOS>PROPERTY_DATA
index	|	ligand506
Name	|	PAU-WEI-b9b-2
ChemPlp	|	-97.3051
MM-GBSA Nwat=0	|	-18.6523
STDEV0	|	3.4575
MM-GBSA Nwat=30	|	-19.6389
STDEV30	|	6.7067
MM-GBSA Nwat=60	|	-31.2381
STDEV60	|	7.2799
ST.DEV < 10%	|	N
RMSD LIG < 2	|	
DIST < 5	|	
DIST < 3.5	|	N

# MOE 2019.01 (io_trps.svl 2018.10)

@<TRIPOS>MOLECULE
ligand588
54 56 1 0 0 
SMALL
NO_CHARGES


@<TRIPOS>ATOM
  1 O1       5.5570    -2.8830    20.2840 O.2   1 LIG   0.0000 
  2 C2       6.0420    -1.8310    19.8990 C.2   1 LIG   0.0000 
  3 C3       7.2310    -1.2020    20.6080 C.3   1 LIG   0.0000 
  4 H4       7.2630    -1.5250    21.5540 H     1 LIG   0.0000 
  5 H5       8.0740    -1.4630    20.1380 H     1 LIG   0.0000 
  6 N6       7.0990     0.2630    20.5960 N.am  1 LIG   0.0000 
  7 C7       7.7710     1.0130    21.5690 C.2   1 LIG   0.0000 
  8 O8       8.4430     0.4590    22.3950 O.2   1 LIG   0.0000 
  9 N9       7.6630     2.3780    21.5780 N.am  1 LIG   0.0000 
 10 H10      7.1040     2.8400    20.8890 H     1 LIG   0.0000 
 11 C11      8.3690     3.1650    22.5990 C.3   1 LIG   0.0000 
 12 H12      9.3480     3.1720    22.3960 H     1 LIG   0.0000 
 13 H13      8.2180     2.7560    23.4990 H     1 LIG   0.0000 
 14 C14      7.8410     4.5910    22.5950 C.ar  1 LIG   0.0000 
 15 C15      6.5400     4.8160    22.1600 C.ar  1 LIG   0.0000 
 16 H16      5.9760     4.0460    21.8600 H     1 LIG   0.0000 
 17 C17      6.0140     6.1040    22.1400 C.ar  1 LIG   0.0000 
 18 H18      5.0780     6.2650    21.8270 H     1 LIG   0.0000 
 19 C19      6.8110     7.1630    22.5610 C.ar  1 LIG   0.0000 
 20 CL20     6.1490     8.8160    22.5390 Cl    1 LIG   0.0000 
 21 C21      8.1140     6.9510    22.9980 C.ar  1 LIG   0.0000 
 22 H22      8.6770     7.7210    23.2980 H     1 LIG   0.0000 
 23 C23      8.6290     5.6590    23.0140 C.ar  1 LIG   0.0000 
 24 C24     10.0550     5.4500    23.4960 C.3   1 LIG   0.0000 
 25 H25     10.1730     4.5010    23.7870 H     1 LIG   0.0000 
 26 H26     10.6920     5.6510    22.7500 H     1 LIG   0.0000 
 27 N27     10.3260     6.3470    24.6260 N.3   1 LIG   0.0000 
 28 C28      9.9140     5.6330    25.8460 C.3   1 LIG   0.0000 
 29 H29     10.4240     4.7750    25.9070 H     1 LIG   0.0000 
 30 H30      8.9350     5.4370    25.7910 H     1 LIG   0.0000 
 31 C31     10.1830     6.4580    27.0960 C.3   1 LIG   0.0000 
 32 H32      9.5020     7.1870    27.1570 H     1 LIG   0.0000 
 33 H33     10.1100     5.8650    27.8980 H     1 LIG   0.0000 
 34 N34     11.5260     7.0580    27.0670 N.am  1 LIG   0.0000 
 35 C35     12.2120     7.2480    28.2700 C.2   1 LIG   0.0000 
 36 O36     11.7040     6.9230    29.3080 O.2   1 LIG   0.0000 
 37 C37     13.6000     7.8670    28.2650 C.3   1 LIG   0.0000 
 38 H38     13.8770     8.0750    29.2030 H     1 LIG   0.0000 
 39 H39     14.2510     7.2230    27.8610 H     1 LIG   0.0000 
 40 CL40    13.5780     9.3670    27.3070 Cl    1 LIG   0.0000 
 41 C41     12.1880     7.4630    25.8160 C.3   1 LIG   0.0000 
 42 H42     13.1790     7.4100    25.9390 H     1 LIG   0.0000 
 43 H43     11.9290     8.4050    25.6000 H     1 LIG   0.0000 
 44 C44     11.7820     6.5590    24.6610 C.3   1 LIG   0.0000 
 45 H45     12.0690     6.9820    23.8020 H     1 LIG   0.0000 
 46 H46     12.2370     5.6750    24.7660 H     1 LIG   0.0000 
 47 C47      6.2830     0.9610    19.5900 C.3   1 LIG   0.0000 
 48 H48      6.7500     1.8050    19.3270 H     1 LIG   0.0000 
 49 H49      5.3950     1.1830    19.9940 H     1 LIG   0.0000 
 50 C50      6.0540     0.1220    18.3440 C.3   1 LIG   0.0000 
 51 H51      5.4060     0.5800    17.7350 H     1 LIG   0.0000 
 52 H52      6.9190    -0.0220    17.8630 H     1 LIG   0.0000 
 53 N53      5.5040    -1.1650    18.7910 N.am  1 LIG   0.0000 
 54 H54      4.7350    -1.5720    18.2980 H     1 LIG   0.0000 
@<TRIPOS>BOND
  1   1   2  2   
  2   2   3  1   
  3   2  53  am  
  4   3   4  1   
  5   3   5  1   
  6   3   6  1   
  7   6   7  am  
  8   6  47  1   
  9   7   8  2   
 10   7   9  am  
 11   9  10  1   
 12   9  11  1   
 13  11  12  1   
 14  11  13  1   
 15  11  14  1   
 16  14  15  ar  
 17  14  23  ar  
 18  15  16  1   
 19  15  17  ar  
 20  17  18  1   
 21  17  19  ar  
 22  19  20  1   
 23  19  21  ar  
 24  21  22  1   
 25  21  23  ar  
 26  23  24  1   
 27  24  25  1   
 28  24  26  1   
 29  24  27  1   
 30  27  28  1   
 31  27  44  1   
 32  28  29  1   
 33  28  30  1   
 34  28  31  1   
 35  31  32  1   
 36  31  33  1   
 37  31  34  1   
 38  34  35  am  
 39  34  41  1   
 40  35  36  2   
 41  35  37  1   
 42  37  38  1   
 43  37  39  1   
 44  37  40  1   
 45  41  42  1   
 46  41  43  1   
 47  41  44  1   
 48  44  45  1   
 49  44  46  1   
 50  47  48  1   
 51  47  49  1   
 52  47  50  1   
 53  50  51  1   
 54  50  52  1   
 55  50  53  1   
 56  53  54  1   
@<TRIPOS>SUBSTRUCTURE
  1 LIG  14 GROUP 4 **** **** 0
@<TRIPOS>PROPERTY_DATA
index	|	ligand588
Name	|	STU-CHA-535-1
ChemPlp	|	-93.6755
MM-GBSA Nwat=0	|	-7.1543
STDEV0	|	2.9597
MM-GBSA Nwat=30	|	-18.1794
STDEV30	|	6.3373
MM-GBSA Nwat=60	|	-40.3393
STDEV60	|	6.5486
ST.DEV < 10%	|	N
RMSD LIG < 2	|	
DIST < 5	|	
DIST < 3.5	|	N

# MOE 2019.01 (io_trps.svl 2018.10)

@<TRIPOS>MOLECULE
ligand521
59 62 1 0 0 
SMALL
USER_CHARGES


@<TRIPOS>ATOM
  1 N1       7.0010    -3.8620    23.0920 N.am  1 LIG   0.0000 
  2 S4       6.6360    -4.0580    21.5160 S.o2  1 LIG   0.0000 
  3 O5       5.5010    -4.9350    21.3910 O.2   1 LIG   0.0000 
  4 O6       7.7640    -4.6330    20.8300 O.2   1 LIG   0.0000 
  5 C7       6.2550    -2.5130    20.8120 C.ar  1 LIG   0.0000 
  6 C8       6.0880    -2.4160    19.4350 C.ar  1 LIG   0.0000 
  7 C10      5.8010    -1.1710    18.8830 C.ar  1 LIG   0.0000 
  8 C12      5.6820    -0.0290    19.6750 C.ar  1 LIG   0.0000 
  9 C13      5.8450    -0.1540    21.0510 C.ar  1 LIG   0.0000 
 10 C14      6.1280    -1.3880    21.6210 C.ar  1 LIG   0.0000 
 11 N16      5.7250     0.9880    21.8580 N.pl3 1 LIG   0.0000 
 12 C18      5.6390     2.3180    21.2390 C.3   1 LIG   0.0000 
 13 C19      7.0640     2.7590    20.9360 C.3   1 LIG   0.0000 
 14 C22      7.7700     3.1160    22.2340 C.3   1 LIG   0.0000 
 15 C23      7.6020     4.6010    22.5110 C.2   1 LIG   0.0000 
 16 C24      7.0280     5.5220    21.6910 C.2   1 LIG   0.0000 
 17 C26      7.0020     6.8480    22.1960 C.2   1 LIG   0.0000 
 18 C28      7.5580     6.9780    23.4310 C.2   1 LIG   0.0000 
 19 BR29     7.7230     8.6190    24.4890 Br    1 LIG   0.0000 
 20 S30      8.0930     5.4390    23.9090 S.3   1 LIG   0.0000 
 21 N31      9.2010     2.7980    22.1160 N.4   1 LIG   1.0000 
 22 C33      9.8010     3.0160    23.4430 C.3   1 LIG   0.0000 
 23 C36     11.2830     2.6730    23.4600 C.3   1 LIG   0.0000 
 24 N39     11.5470     1.3910    22.7880 N.am  1 LIG   0.0000 
 25 C40     12.6000     0.5970    23.2560 C.2   1 LIG   0.0000 
 26 O41     13.2630     0.9670    24.1850 O.2   1 LIG   0.0000 
 27 C42     12.9040    -0.7340    22.5880 C.3   1 LIG   0.0000 
 28 CL45    11.4410    -1.7490    22.5940 Cl    1 LIG   0.0000 
 29 C46     10.7410     0.9080    21.6550 C.3   1 LIG   0.0000 
 30 C49      9.2960     1.3740    21.7540 C.3   1 LIG   0.0000 
 31 C52      4.7730     2.2910    19.9900 C.3   1 LIG   0.0000 
 32 C55      5.3960     1.3090    19.0110 C.3   1 LIG   0.0000 
 33 H8       6.1730    -3.2250    18.8530 H     1 LIG   0.0000 
 34 H10      5.6760    -1.0930    17.8940 H     1 LIG   0.0000 
 35 H14      6.2400    -1.4680    22.6110 H     1 LIG   0.0000 
 36 H24      6.6500     5.2810    20.7970 H     1 LIG   0.0000 
 37 H26      6.6110     7.6170    21.6910 H     1 LIG   0.0000 
 38 H18      5.2370     2.9550    21.8970 H     1 LIG   0.0000 
 39 H191     7.5540     2.0140    20.4840 H     1 LIG   0.0000 
 40 H192     7.0450     3.5590    20.3360 H     1 LIG   0.0000 
 41 H22      7.3730     2.5890    22.9860 H     1 LIG   0.0000 
 42 H31      9.6400     3.3730    21.4260 H     1 LIG   0.0000 
 43 H331     9.3280     2.4410    24.1100 H     1 LIG   0.0000 
 44 H332     9.6890     3.9780    23.6940 H     1 LIG   0.0000 
 45 H361    11.7890     3.3960    22.9900 H     1 LIG   0.0000 
 46 H362    11.5920     2.6120    24.4090 H     1 LIG   0.0000 
 47 H421    13.1940    -0.5750    21.6440 H     1 LIG   0.0000 
 48 H422    13.6340    -1.1990    23.0870 H     1 LIG   0.0000 
 49 H461    10.7590    -0.0920    21.6470 H     1 LIG   0.0000 
 50 H462    11.1360     1.2550    20.8040 H     1 LIG   0.0000 
 51 H491     8.8510     1.2350    20.8690 H     1 LIG   0.0000 
 52 H492     8.8280     0.8310    22.4510 H     1 LIG   0.0000 
 53 H521     4.7390     3.2030    19.5810 H     1 LIG   0.0000 
 54 H522     3.8470     1.9960    20.2250 H     1 LIG   0.0000 
 55 H551     4.7660     1.1660    18.2480 H     1 LIG   0.0000 
 56 H552     6.2540     1.6920    18.6680 H     1 LIG   0.0000 
 57 H11      6.1560    -3.7790    23.6220 H     1 LIG   0.0000 
 58 H12      7.5200    -4.6540    23.4150 H     1 LIG   0.0000 
 59 H16      5.6970     0.8970    22.8530 H     1 LIG   0.0000 
@<TRIPOS>BOND
  1   1   2  am  
  2   1  57  1   
  3   1  58  1   
  4   2   3  2   
  5   2   4  2   
  6   2   5  1   
  7   5   6  ar  
  8   5  10  ar  
  9   6   7  ar  
 10   6  33  1   
 11   7   8  ar  
 12   7  34  1   
 13   8   9  ar  
 14   8  32  1   
 15   9  10  ar  
 16   9  11  1   
 17  10  35  1   
 18  11  12  1   
 19  11  59  1   
 20  12  13  1   
 21  12  31  1   
 22  12  38  1   
 23  13  14  1   
 24  13  39  1   
 25  13  40  1   
 26  14  15  1   
 27  14  21  1   
 28  14  41  1   
 29  15  16  2   
 30  15  20  1   
 31  16  17  1   
 32  16  36  1   
 33  17  18  2   
 34  17  37  1   
 35  18  19  1   
 36  18  20  1   
 37  21  22  1   
 38  21  30  1   
 39  21  42  1   
 40  22  23  1   
 41  22  43  1   
 42  22  44  1   
 43  23  24  1   
 44  23  45  1   
 45  23  46  1   
 46  24  25  am  
 47  24  29  1   
 48  25  26  2   
 49  25  27  1   
 50  27  28  1   
 51  27  47  1   
 52  27  48  1   
 53  29  30  1   
 54  29  49  1   
 55  29  50  1   
 56  30  51  1   
 57  30  52  1   
 58  31  32  1   
 59  31  53  1   
 60  31  54  1   
 61  32  55  1   
 62  32  56  1   
@<TRIPOS>SUBSTRUCTURE
  1 LIG  30 GROUP 4 **** **** 0
@<TRIPOS>PROPERTY_DATA
index	|	ligand521
Name	|	PED-UNI-d0b-1
ChemPlp	|	-92.9277
MM-GBSA Nwat=0	|	35.0573
STDEV0	|	4.6753
MM-GBSA Nwat=30	|	-12.1312
STDEV30	|	16.0578
MM-GBSA Nwat=60	|	-77.0279
STDEV60	|	15.1418
ST.DEV < 10%	|	N
RMSD LIG < 2	|	
DIST < 5	|	
DIST < 3.5	|	N

# MOE 2019.01 (io_trps.svl 2018.10)

@<TRIPOS>MOLECULE
ligand383
55 57 1 0 0 
SMALL
NO_CHARGES


@<TRIPOS>ATOM
  1 O1       5.6380    -3.5750    20.3080 O.2   1 LIG   0.0000 
  2 C2       5.6930    -2.6540    21.0760 C.2   1 LIG   0.0000 
  3 N3       5.0340    -1.4870    20.7930 N.am  1 LIG   0.0000 
  4 C5       5.5910    -0.5690    19.8940 C.ar  1 LIG   0.0000 
  5 C6       4.9320     0.6240    19.6190 C.ar  1 LIG   0.0000 
  6 C8       5.4860     1.5340    18.7260 C.ar  1 LIG   0.0000 
  7 C10      6.6990     1.2220    18.1220 C.ar  1 LIG   0.0000 
  8 N12      7.3230     0.0670    18.3970 N.ar  1 LIG   0.0000 
  9 C13      6.8010    -0.8210    19.2570 C.ar  1 LIG   0.0000 
 10 C15      6.4940    -2.7840    22.3620 C.3   1 LIG   0.0000 
 11 C16      5.8720    -3.8570    23.2400 C.3   1 LIG   0.0000 
 12 C18      4.4010    -3.5490    23.4730 C.3   1 LIG   0.0000 
 13 C21      3.7770    -4.6220    24.3510 C.3   1 LIG   0.0000 
 14 C24      3.9260    -5.9850    23.6960 C.3   1 LIG   0.0000 
 15 C27      5.3960    -6.2940    23.4630 C.3   1 LIG   0.0000 
 16 C30      6.0200    -5.2210    22.5850 C.3   1 LIG   0.0000 
 17 S33      8.2000    -3.2410    21.9670 S.o2  1 LIG   0.0000 
 18 O34      8.8520    -2.1380    21.3100 O.2   1 LIG   0.0000 
 19 O35      8.2000    -4.3870    21.0960 O.2   1 LIG   0.0000 
 20 N36      8.9970    -3.6030    23.3420 N.am  1 LIG   0.0000 
 21 C38      9.6770    -2.4000    23.8450 C.3   1 LIG   0.0000 
 22 C41     10.9660    -2.1850    23.0690 C.3   1 LIG   0.0000 
 23 C44     11.5800    -0.8520    23.4650 C.ar  1 LIG   0.0000 
 24 C45     11.1520    -0.2140    24.6250 C.ar  1 LIG   0.0000 
 25 C47     11.7150     1.0060    24.9840 C.ar  1 LIG   0.0000 
 26 C49     12.7000     1.5790    24.1850 C.ar  1 LIG   0.0000 
 27 C51     13.1200     0.9330    23.0290 C.ar  1 LIG   0.0000 
 28 C53     12.5640    -0.2880    22.6600 C.ar  1 LIG   0.0000 
 29 H6       4.0590     0.8270    20.0630 H     1 LIG   0.0000 
 30 H8       5.0210     2.3950    18.5220 H     1 LIG   0.0000 
 31 H10      7.1110     1.8660    17.4770 H     1 LIG   0.0000 
 32 H13      7.2880    -1.6740    19.4420 H     1 LIG   0.0000 
 33 H45     10.4450    -0.6300    25.1970 H     1 LIG   0.0000 
 34 H47     11.4130     1.4720    25.8150 H     1 LIG   0.0000 
 35 H49     13.1050     2.4560    24.4430 H     1 LIG   0.0000 
 36 H51     13.8280     1.3480    22.4580 H     1 LIG   0.0000 
 37 H53     12.8660    -0.7520    21.8270 H     1 LIG   0.0000 
 38 H15      6.4860    -1.9100    22.8480 H     1 LIG   0.0000 
 39 H16      6.3440    -3.8680    24.1210 H     1 LIG   0.0000 
 40 H181     3.9250    -3.5230    22.5940 H     1 LIG   0.0000 
 41 H182     4.3170    -2.6610    23.9250 H     1 LIG   0.0000 
 42 H211     2.8060    -4.4200    24.4800 H     1 LIG   0.0000 
 43 H212     4.2360    -4.6300    25.2400 H     1 LIG   0.0000 
 44 H241     3.4450    -5.9840    22.8190 H     1 LIG   0.0000 
 45 H242     3.5310    -6.6840    24.2920 H     1 LIG   0.0000 
 46 H271     5.8720    -6.3200    24.3420 H     1 LIG   0.0000 
 47 H272     5.4810    -7.1820    23.0110 H     1 LIG   0.0000 
 48 H301     6.9910    -5.4220    22.4580 H     1 LIG   0.0000 
 49 H302     5.5620    -5.2130    21.6970 H     1 LIG   0.0000 
 50 H381     9.8880    -2.5180    24.8160 H     1 LIG   0.0000 
 51 H382     9.0810    -1.6060    23.7270 H     1 LIG   0.0000 
 52 H411    11.6080    -2.9230    23.2780 H     1 LIG   0.0000 
 53 H412    10.7690    -2.1840    22.0890 H     1 LIG   0.0000 
 54 H3       4.1560    -1.2900    21.2290 H     1 LIG   0.0000 
 55 H36      9.6740    -4.3160    23.1570 H     1 LIG   0.0000 
@<TRIPOS>BOND
  1   1   2  2   
  2   2   3  am  
  3   2  10  1   
  4   3   4  1   
  5   3  54  1   
  6   4   5  ar  
  7   4   9  ar  
  8   5   6  ar  
  9   5  29  1   
 10   6   7  ar  
 11   6  30  1   
 12   7   8  ar  
 13   7  31  1   
 14   8   9  ar  
 15   9  32  1   
 16  10  11  1   
 17  10  17  1   
 18  10  38  1   
 19  11  12  1   
 20  11  16  1   
 21  11  39  1   
 22  12  13  1   
 23  12  40  1   
 24  12  41  1   
 25  13  14  1   
 26  13  42  1   
 27  13  43  1   
 28  14  15  1   
 29  14  44  1   
 30  14  45  1   
 31  15  16  1   
 32  15  46  1   
 33  15  47  1   
 34  16  48  1   
 35  16  49  1   
 36  17  18  2   
 37  17  19  2   
 38  17  20  am  
 39  20  21  1   
 40  20  55  1   
 41  21  22  1   
 42  21  50  1   
 43  21  51  1   
 44  22  23  1   
 45  22  52  1   
 46  22  53  1   
 47  23  24  ar  
 48  23  28  ar  
 49  24  25  ar  
 50  24  33  1   
 51  25  26  ar  
 52  25  34  1   
 53  26  27  ar  
 54  26  35  1   
 55  27  28  ar  
 56  27  36  1   
 57  28  37  1   
@<TRIPOS>SUBSTRUCTURE
  1 LIG  18 GROUP 4 **** **** 0
@<TRIPOS>PROPERTY_DATA
index	|	ligand383
Name	|	MAK-UNK-b2c-5
ChemPlp	|	-95.1827
MM-GBSA Nwat=0	|	46.3307
STDEV0	|	6.8352
MM-GBSA Nwat=30	|	-5.7879
STDEV30	|	12.3186
MM-GBSA Nwat=60	|	-23.0824
STDEV60	|	9.9408
ST.DEV < 10%	|	N
RMSD LIG < 2	|	
DIST < 5	|	
DIST < 3.5	|	N

# MOE 2019.01 (io_trps.svl 2018.10)

@<TRIPOS>MOLECULE
ligand585
45 47 1 0 0 
SMALL
NO_CHARGES


@<TRIPOS>ATOM
  1 N1       6.8840    -7.9550    30.1320 N.am  1 LIG   0.0000 
  2 H2       6.5340    -8.8120    30.5100 H     1 LIG   0.0000 
  3 H3       6.8400    -7.9880    29.1340 H     1 LIG   0.0000 
  4 S4       5.9810    -6.7120    30.6760 S.o2  1 LIG   0.0000 
  5 O5       6.8280    -5.7640    31.3540 O.2   1 LIG   0.0000 
  6 O6       4.9850    -7.2060    31.5910 O.2   1 LIG   0.0000 
  7 C7       5.1670    -5.9010    29.2780 C.3   1 LIG   0.0000 
  8 H8       4.7340    -5.0550    29.5890 H     1 LIG   0.0000 
  9 H9       4.4720    -6.5110    28.8980 H     1 LIG   0.0000 
 10 C10      6.1970    -5.5780    28.2090 C.2   1 LIG   0.0000 
 11 N11      7.3950    -5.0910    28.4330 N.2   1 LIG   0.0000 
 12 C12      8.0240    -4.9380    27.2320 C.ar  1 LIG   0.0000 
 13 C13      9.2920    -4.4620    26.9120 C.ar  1 LIG   0.0000 
 14 H14      9.9060    -4.1620    27.6430 H     1 LIG   0.0000 
 15 C15      9.7160    -4.4000    25.5890 C.ar  1 LIG   0.0000 
 16 H16     10.6280    -4.0570    25.3650 H     1 LIG   0.0000 
 17 C17      8.8540    -4.8210    24.5810 C.ar  1 LIG   0.0000 
 18 H18      9.1420    -4.7840    23.6240 H     1 LIG   0.0000 
 19 C19      7.5900    -5.2940    24.9150 C.ar  1 LIG   0.0000 
 20 C20      6.6880    -5.7430    23.7760 C.3   1 LIG   0.0000 
 21 H21      6.8710    -6.7040    23.5660 H     1 LIG   0.0000 
 22 H22      5.7320    -5.6370    24.0460 H     1 LIG   0.0000 
 23 N23      6.9560    -4.9230    22.5870 N.3   1 LIG   0.0000 
 24 C24      6.1770    -5.5050    21.4830 C.3   1 LIG   0.0000 
 25 H25      5.2090    -5.5090    21.7350 H     1 LIG   0.0000 
 26 H26      6.4850    -6.4430    21.3280 H     1 LIG   0.0000 
 27 C27      6.3480    -4.7100    20.1960 C.3   1 LIG   0.0000 
 28 H28      7.2510    -4.9050    19.8120 H     1 LIG   0.0000 
 29 H29      5.6420    -4.9890    19.5460 H     1 LIG   0.0000 
 30 N30      6.2330    -3.2630    20.4380 N.am  1 LIG   0.0000 
 31 C31      5.6990    -2.4480    19.4350 C.2   1 LIG   0.0000 
 32 O32      5.3430    -2.9300    18.3950 O.2   1 LIG   0.0000 
 33 C33      5.5700    -0.9500    19.6610 C.3   1 LIG   0.0000 
 34 H34      4.6610    -0.7450    20.0230 H     1 LIG   0.0000 
 35 H35      6.2650    -0.6510    20.3150 H     1 LIG   0.0000 
 36 CL36     5.8010    -0.0950    18.1170 Cl    1 LIG   0.0000 
 37 C37      6.6500    -2.6320    21.7000 C.3   1 LIG   0.0000 
 38 H38      6.1080    -1.8050    21.8460 H     1 LIG   0.0000 
 39 H39      7.6180    -2.3900    21.6390 H     1 LIG   0.0000 
 40 C40      6.4460    -3.5730    22.8780 C.3   1 LIG   0.0000 
 41 H41      6.9310    -3.2080    23.6730 H     1 LIG   0.0000 
 42 H42      5.4690    -3.6320    23.0820 H     1 LIG   0.0000 
 43 C43      7.1700    -5.3530    26.2430 C.ar  1 LIG   0.0000 
 44 N44      6.0240    -5.7560    26.8680 N.pl3 1 LIG   0.0000 
 45 H45      5.2050    -6.1160    26.4230 H     1 LIG   0.0000 
@<TRIPOS>BOND
  1   1   2  1   
  2   1   3  1   
  3   1   4  am  
  4   4   5  2   
  5   4   6  2   
  6   4   7  1   
  7   7   8  1   
  8   7   9  1   
  9   7  10  1   
 10  10  11  2   
 11  10  44  1   
 12  11  12  1   
 13  12  13  ar  
 14  12  43  ar  
 15  13  14  1   
 16  13  15  ar  
 17  15  16  1   
 18  15  17  ar  
 19  17  18  1   
 20  17  19  ar  
 21  19  20  1   
 22  19  43  ar  
 23  20  21  1   
 24  20  22  1   
 25  20  23  1   
 26  23  24  1   
 27  23  40  1   
 28  24  25  1   
 29  24  26  1   
 30  24  27  1   
 31  27  28  1   
 32  27  29  1   
 33  27  30  1   
 34  30  31  am  
 35  30  37  1   
 36  31  32  2   
 37  31  33  1   
 38  33  34  1   
 39  33  35  1   
 40  33  36  1   
 41  37  38  1   
 42  37  39  1   
 43  37  40  1   
 44  40  41  1   
 45  40  42  1   
 46  43  44  1   
 47  44  45  1   
@<TRIPOS>SUBSTRUCTURE
  1 LIG  19 GROUP 4 **** **** 0
@<TRIPOS>PROPERTY_DATA
index	|	ligand585
Name	|	STU-CHA-0f7-1
ChemPlp	|	-95.5055
MM-GBSA Nwat=0	|	24.8636
STDEV0	|	6.0224
MM-GBSA Nwat=30	|	-3.8779
STDEV30	|	12.854
MM-GBSA Nwat=60	|	-30.3461
STDEV60	|	13.8096
ST.DEV < 10%	|	N
RMSD LIG < 2	|	
DIST < 5	|	
DIST < 3.5	|	N

# MOE 2019.01 (io_trps.svl 2018.10)

@<TRIPOS>MOLECULE
ligand387
56 57 1 0 0 
SMALL
NO_CHARGES


@<TRIPOS>ATOM
  1 O1       8.9650     0.3090    23.0200 O.2   1 LIG   0.0000 
  2 C2       9.4610     1.0220    22.1910 C.2   1 LIG   0.0000 
  3 C3      10.8710     0.7440    21.6960 C.3   1 LIG   0.0000 
  4 S6      11.6410    -0.5170    22.7420 S.o2  1 LIG   0.0000 
  5 O7      10.8860    -1.7400    22.6530 O.2   1 LIG   0.0000 
  6 O8      12.9900    -0.7520    22.2960 O.2   1 LIG   0.0000 
  7 N9      11.6620    -0.0010    24.2880 N.am  1 LIG   0.0000 
  8 C11     11.5310     1.4620    24.3180 C.3   1 LIG   0.0000 
  9 C14     12.7290     2.0930    23.6270 C.3   1 LIG   0.0000 
 10 C17     12.6120     3.6070    23.6910 C.ar  1 LIG   0.0000 
 11 C18     11.7810     4.1950    24.6400 C.ar  1 LIG   0.0000 
 12 C20     11.6760     5.5810    24.6950 C.ar  1 LIG   0.0000 
 13 C22     12.4000     6.3690    23.8060 C.ar  1 LIG   0.0000 
 14 C24     13.2270     5.7710    22.8630 C.ar  1 LIG   0.0000 
 15 C26     13.3400     4.3860    22.7970 C.ar  1 LIG   0.0000 
 16 N28      8.7570     2.0850    21.6920 N.am  1 LIG   0.0000 
 17 C30      7.3930     2.3540    22.1720 C.3   1 LIG   0.0000 
 18 C31      6.4070     2.1540    21.0320 C.3   1 LIG   0.0000 
 19 C34      6.2420     0.6670    20.7600 C.ar  1 LIG   0.0000 
 20 C35      6.4530    -0.2450    21.7890 C.ar  1 LIG   0.0000 
 21 C37      6.3030    -1.6050    21.5440 C.ar  1 LIG   0.0000 
 22 C39      5.9420    -2.0380    20.2720 C.ar  1 LIG   0.0000 
 23 O40      5.7960    -3.3570    20.0300 O.3   1 LIG   0.0000 
 24 C42      5.7310    -1.1300    19.2390 C.ar  1 LIG   0.0000 
 25 C44      5.8820     0.2300    19.4900 C.ar  1 LIG   0.0000 
 26 C46      7.3050     3.7860    22.6720 C.2   1 LIG   0.0000 
 27 O47      6.4930     4.0820    23.5050 O.2   1 LIG   0.0000 
 28 N48      8.1520     4.7400    22.1730 N.am  1 LIG   0.0000 
 29 C50      8.0670     6.1250    22.6570 C.3   1 LIG   0.0000 
 30 C53      7.1330     6.9200    21.7580 C.1   1 LIG   0.0000 
 31 C54      6.4030     7.5420    21.0550 C.1   1 LIG   0.0000 
 32 BR55     5.1990     8.5660    19.8960 Br    1 LIG   0.0000 
 33 H18     11.2640     3.6250    25.2780 H     1 LIG   0.0000 
 34 H20     11.0810     6.0110    25.3740 H     1 LIG   0.0000 
 35 H22     12.3250     7.3650    23.8460 H     1 LIG   0.0000 
 36 H24     13.7450     6.3410    22.2250 H     1 LIG   0.0000 
 37 H26     13.9350     3.9570    22.1180 H     1 LIG   0.0000 
 38 H35      6.7120     0.0770    22.7000 H     1 LIG   0.0000 
 39 H37      6.4530    -2.2690    22.2780 H     1 LIG   0.0000 
 40 H42      5.4730    -1.4510    18.3280 H     1 LIG   0.0000 
 41 H44      5.7320     0.8930    18.7560 H     1 LIG   0.0000 
 42 H31     10.8340     0.4170    20.7520 H     1 LIG   0.0000 
 43 H32     11.4100     1.5850    21.7360 H     1 LIG   0.0000 
 44 H111    11.4920     1.7740    25.2680 H     1 LIG   0.0000 
 45 H112    10.6930     1.7320    23.8440 H     1 LIG   0.0000 
 46 H141    13.5690     1.8040    24.0860 H     1 LIG   0.0000 
 47 H142    12.7540     1.8010    22.6710 H     1 LIG   0.0000 
 48 H30      7.1720     1.7260    22.9180 H     1 LIG   0.0000 
 49 H311     5.5220     2.5460    21.2840 H     1 LIG   0.0000 
 50 H312     6.7510     2.6070    20.2100 H     1 LIG   0.0000 
 51 H501     8.9770     6.5400    22.6430 H     1 LIG   0.0000 
 52 H502     7.7130     6.1300    23.5930 H     1 LIG   0.0000 
 53 H9      12.5260    -0.2680    24.7160 H     1 LIG   0.0000 
 54 H28      9.1700     2.6790    21.0020 H     1 LIG   0.0000 
 55 H48      8.8290     4.4940    21.4790 H     1 LIG   0.0000 
 56 H40      6.4920    -4.0040    20.3440 H     1 LIG   0.0000 
@<TRIPOS>BOND
  1   1   2  2   
  2   2   3  1   
  3   2  16  am  
  4   3   4  1   
  5   3  42  1   
  6   3  43  1   
  7   4   5  2   
  8   4   6  2   
  9   4   7  am  
 10   7   8  1   
 11   7  53  1   
 12   8   9  1   
 13   8  44  1   
 14   8  45  1   
 15   9  10  1   
 16   9  46  1   
 17   9  47  1   
 18  10  11  ar  
 19  10  15  ar  
 20  11  12  ar  
 21  11  33  1   
 22  12  13  ar  
 23  12  34  1   
 24  13  14  ar  
 25  13  35  1   
 26  14  15  ar  
 27  14  36  1   
 28  15  37  1   
 29  16  17  1   
 30  16  54  1   
 31  17  18  1   
 32  17  26  1   
 33  17  48  1   
 34  18  19  1   
 35  18  49  1   
 36  18  50  1   
 37  19  20  ar  
 38  19  25  ar  
 39  20  21  ar  
 40  20  38  1   
 41  21  22  ar  
 42  21  39  1   
 43  22  23  1   
 44  22  24  ar  
 45  23  56  1   
 46  24  25  ar  
 47  24  40  1   
 48  25  41  1   
 49  26  27  2   
 50  26  28  am  
 51  28  29  1   
 52  28  55  1   
 53  29  30  1   
 54  29  51  1   
 55  29  52  1   
 56  30  31  3   
 57  31  32  1   
@<TRIPOS>SUBSTRUCTURE
  1 LIG  16 GROUP 4 **** **** 0
@<TRIPOS>PROPERTY_DATA
index	|	ligand387
Name	|	MAK-UNK-c44-8
ChemPlp	|	-107.577
MM-GBSA Nwat=0	|	21.7341
STDEV0	|	3.9311
MM-GBSA Nwat=30	|	-3.2937
STDEV30	|	11.2904
MM-GBSA Nwat=60	|	-13.856
STDEV60	|	11.4032
ST.DEV < 10%	|	N
RMSD LIG < 2	|	
DIST < 5	|	
DIST < 3.5	|	N

# MOE 2019.01 (io_trps.svl 2018.10)

@<TRIPOS>MOLECULE
ligand548
45 47 1 0 0 
SMALL
NO_CHARGES


@<TRIPOS>ATOM
  1 N1       5.7660    -1.3100    22.2030 N.am  1 LIG   0.0000 
  2 S4       6.1800    -2.3960    21.0600 S.o2  1 LIG   0.0000 
  3 O5       5.5000    -3.6400    21.3110 O.2   1 LIG   0.0000 
  4 O6       7.6040    -2.6110    21.0960 O.2   1 LIG   0.0000 
  5 C7       5.7060    -1.7670    19.4300 C.3   1 LIG   0.0000 
  6 C10      6.5980    -0.5930    19.0610 C.3   1 LIG   0.0000 
  7 C13      6.2570     0.5990    19.9410 C.ar  1 LIG   0.0000 
  8 C14      4.9270     1.0060    19.9830 C.ar  1 LIG   0.0000 
  9 C16      4.5320     2.0870    20.7640 C.ar  1 LIG   0.0000 
 10 C18      5.4710     2.7720    21.5170 C.ar  1 LIG   0.0000 
 11 C20      6.7700     2.3050    21.4210 C.ar  1 LIG   0.0000 
 12 S21      8.1100     2.9630    22.2290 S.3   1 LIG   0.0000 
 13 C22      9.2440     1.8680    21.5910 C.2   1 LIG   0.0000 
 14 C23     10.7290     1.8690    21.9180 C.3   1 LIG   0.0000 
 15 C24     11.0860     0.6810    22.8020 C.3   1 LIG   0.0000 
 16 C27     12.5840     0.7350    23.0710 C.3   1 LIG   0.0000 
 17 C30     13.0040     2.0070    23.7930 C.3   1 LIG   0.0000 
 18 N33     12.4070     3.2060    23.1810 N.am  1 LIG   0.0000 
 19 C34     13.1500     4.3920    23.1860 C.2   1 LIG   0.0000 
 20 O35     14.2420     4.4140    23.6830 O.2   1 LIG   0.0000 
 21 C36     12.5750     5.6520    22.5610 C.3   1 LIG   0.0000 
 22 CL39    13.9010     6.6690    21.9460 Cl    1 LIG   0.0000 
 23 C40     11.0690     3.2040    22.5650 C.3   1 LIG   0.0000 
 24 N43      8.6010     1.0430    20.7990 N.2   1 LIG   0.0000 
 25 C44      7.2460     1.2510    20.6740 C.ar  1 LIG   0.0000 
 26 H14      4.2440     0.5140    19.4420 H     1 LIG   0.0000 
 27 H16      3.5730     2.3690    20.7820 H     1 LIG   0.0000 
 28 H18      5.2260     3.5530    22.0920 H     1 LIG   0.0000 
 29 H71      4.7520    -1.4670    19.4540 H     1 LIG   0.0000 
 30 H72      5.8100    -2.4920    18.7500 H     1 LIG   0.0000 
 31 H101     7.5550    -0.8460    19.1980 H     1 LIG   0.0000 
 32 H102     6.4510    -0.3520    18.1010 H     1 LIG   0.0000 
 33 H23     11.2410     1.7920    21.0620 H     1 LIG   0.0000 
 34 H241    10.8540    -0.1720    22.3350 H     1 LIG   0.0000 
 35 H242    10.5830     0.7360    23.6650 H     1 LIG   0.0000 
 36 H271    12.8370    -0.0520    23.6340 H     1 LIG   0.0000 
 37 H272    13.0680     0.6880    22.1970 H     1 LIG   0.0000 
 38 H301    12.7100     1.9500    24.7470 H     1 LIG   0.0000 
 39 H302    14.0010     2.0870    23.7560 H     1 LIG   0.0000 
 40 H361    11.9690     5.4030    21.8050 H     1 LIG   0.0000 
 41 H362    12.0580     6.1600    23.2500 H     1 LIG   0.0000 
 42 H401    11.0370     3.9180    21.8650 H     1 LIG   0.0000 
 43 H402    10.3890     3.4010    23.2720 H     1 LIG   0.0000 
 44 H11      4.7730    -1.1940    22.2090 H     1 LIG   0.0000 
 45 H12      6.0690    -1.6360    23.0980 H     1 LIG   0.0000 
@<TRIPOS>BOND
  1   1   2  am  
  2   1  44  1   
  3   1  45  1   
  4   2   3  2   
  5   2   4  2   
  6   2   5  1   
  7   5   6  1   
  8   5  29  1   
  9   5  30  1   
 10   6   7  1   
 11   6  31  1   
 12   6  32  1   
 13   7   8  ar  
 14   7  25  ar  
 15   8   9  ar  
 16   8  26  1   
 17   9  10  ar  
 18   9  27  1   
 19  10  11  ar  
 20  10  28  1   
 21  11  12  1   
 22  11  25  ar  
 23  12  13  1   
 24  13  14  1   
 25  13  24  2   
 26  14  15  1   
 27  14  23  1   
 28  14  33  1   
 29  15  16  1   
 30  15  34  1   
 31  15  35  1   
 32  16  17  1   
 33  16  36  1   
 34  16  37  1   
 35  17  18  1   
 36  17  38  1   
 37  17  39  1   
 38  18  19  am  
 39  18  23  1   
 40  19  20  2   
 41  19  21  1   
 42  21  22  1   
 43  21  40  1   
 44  21  41  1   
 45  23  42  1   
 46  23  43  1   
 47  24  25  1   
@<TRIPOS>SUBSTRUCTURE
  1 LIG  13 GROUP 4 **** **** 0
@<TRIPOS>PROPERTY_DATA
index	|	ligand548
Name	|	SEA-TRI-f74-1
ChemPlp	|	-92.764
MM-GBSA Nwat=0	|	44.6306
STDEV0	|	6.4179
MM-GBSA Nwat=30	|	-3.1885
STDEV30	|	10.0943
MM-GBSA Nwat=60	|	-25.5341
STDEV60	|	9.5744
ST.DEV < 10%	|	N
RMSD LIG < 2	|	
DIST < 5	|	
DIST < 3.5	|	N

# MOE 2019.01 (io_trps.svl 2018.10)

@<TRIPOS>MOLECULE
ligand437
54 57 1 0 0 
SMALL
NO_CHARGES


@<TRIPOS>ATOM
  1 N1       8.1400     2.4960    26.2810 N.am  1 LIG   0.0000 
  2 H2       7.7900     1.7310    25.7390 H     1 LIG   0.0000 
  3 H3       8.8070     2.1570    26.9440 H     1 LIG   0.0000 
  4 S4       8.8560     3.5780    25.2940 S.o2  1 LIG   0.0000 
  5 O5       9.2430     4.7380    26.0540 O.2   1 LIG   0.0000 
  6 O6       7.9330     3.9680    24.2600 O.2   1 LIG   0.0000 
  7 C7      10.2660     2.8600    24.5720 C.ar  1 LIG   0.0000 
  8 C8      11.3700     3.6340    24.2320 C.ar  1 LIG   0.0000 
  9 H9      11.3700     4.6200    24.3980 H     1 LIG   0.0000 
 10 C10     12.4740     3.0140    23.6560 C.ar  1 LIG   0.0000 
 11 H11     13.2740     3.5590    23.4060 H     1 LIG   0.0000 
 12 C12     12.4760     1.6420    23.4230 C.ar  1 LIG   0.0000 
 13 C13     13.5990     1.0580    22.8440 C.ar  1 LIG   0.0000 
 14 H14     14.3870     1.6230    22.6020 H     1 LIG   0.0000 
 15 C15     13.6240    -0.3120    22.6020 C.ar  1 LIG   0.0000 
 16 H16     14.4320    -0.7310    22.1870 H     1 LIG   0.0000 
 17 C17     12.5270    -1.0990    22.9380 C.ar  1 LIG   0.0000 
 18 H18     12.5460    -2.0830    22.7640 H     1 LIG   0.0000 
 19 C19     11.4040    -0.5160    23.5160 C.ar  1 LIG   0.0000 
 20 C20     10.2360    -1.4290    23.8580 C.3   1 LIG   0.0000 
 21 H21     10.5820    -2.2730    24.2680 H     1 LIG   0.0000 
 22 H22      9.6310    -0.9680    24.5060 H     1 LIG   0.0000 
 23 N23      9.4900    -1.7500    22.6330 N.3   1 LIG   0.0000 
 24 C24      8.7110    -0.5530    22.2760 C.3   1 LIG   0.0000 
 25 H25      9.3340     0.2230    22.1810 H     1 LIG   0.0000 
 26 H26      8.0530    -0.3650    23.0050 H     1 LIG   0.0000 
 27 C27      7.9560    -0.7420    20.9680 C.3   1 LIG   0.0000 
 28 H28      7.2700    -0.0200    20.8820 H     1 LIG   0.0000 
 29 H29      8.6030    -0.6790    20.2080 H     1 LIG   0.0000 
 30 N30      7.2830    -2.0500    20.9150 N.am  1 LIG   0.0000 
 31 C31      6.0800    -2.1480    20.2050 C.2   1 LIG   0.0000 
 32 O32      5.5060    -3.2000    20.1380 O.2   1 LIG   0.0000 
 33 C33      5.5000    -0.9220    19.5170 C.3   1 LIG   0.0000 
 34 H34      4.7550    -1.2010    18.9120 H     1 LIG   0.0000 
 35 H35      5.1500    -0.2880    20.2070 H     1 LIG   0.0000 
 36 CL36     6.7710    -0.1200    18.5640 Cl    1 LIG   0.0000 
 37 C37      7.8370    -3.2420    21.5780 C.3   1 LIG   0.0000 
 38 C38      6.7660    -4.2630    21.9280 C.ar  1 LIG   0.0000 
 39 C39      5.7450    -3.9260    22.8100 C.ar  1 LIG   0.0000 
 40 H40      5.7130    -3.0120    23.2140 H     1 LIG   0.0000 
 41 C41      4.7670    -4.8630    23.1280 C.ar  1 LIG   0.0000 
 42 H42      4.0280    -4.6330    23.7600 H     1 LIG   0.0000 
 43 C43      4.8370    -6.1260    22.5490 C.ar  1 LIG   0.0000 
 44 H44      4.1410    -6.8110    22.7670 H     1 LIG   0.0000 
 45 N45      5.8300    -6.4340    21.7010 N.ar  1 LIG   0.0000 
 46 C46      6.7800    -5.5420    21.3840 C.ar  1 LIG   0.0000 
 47 H47      7.5070    -5.8010    20.7480 H     1 LIG   0.0000 
 48 C48      8.5370    -2.8460    22.8680 C.3   1 LIG   0.0000 
 49 H49      7.8540    -2.5490    23.5340 H     1 LIG   0.0000 
 50 H50      9.0310    -3.6380    23.2280 H     1 LIG   0.0000 
 51 C51     11.3780     0.8560    23.7600 C.ar  1 LIG   0.0000 
 52 C52     10.2800     1.4900    24.3350 C.ar  1 LIG   0.0000 
 53 H53      9.4800     0.9450    24.5850 H     1 LIG   0.0000 
 54 H54      8.5030    -3.6700    20.9670 H     1 LIG   0.0000 
@<TRIPOS>BOND
  1   1   2  1   
  2   1   3  1   
  3   1   4  am  
  4   4   5  2   
  5   4   6  2   
  6   4   7  1   
  7   7   8  ar  
  8   7  52  ar  
  9   8   9  1   
 10   8  10  ar  
 11  10  11  1   
 12  10  12  ar  
 13  12  13  ar  
 14  12  51  ar  
 15  13  14  1   
 16  13  15  ar  
 17  15  16  1   
 18  15  17  ar  
 19  17  18  1   
 20  17  19  ar  
 21  19  20  1   
 22  19  51  ar  
 23  20  21  1   
 24  20  22  1   
 25  20  23  1   
 26  23  24  1   
 27  23  48  1   
 28  24  25  1   
 29  24  26  1   
 30  24  27  1   
 31  27  28  1   
 32  27  29  1   
 33  27  30  1   
 34  30  31  am  
 35  30  37  1   
 36  31  32  2   
 37  31  33  1   
 38  33  34  1   
 39  33  35  1   
 40  33  36  1   
 41  37  38  1   
 42  37  48  1   
 43  37  54  1   
 44  38  39  ar  
 45  38  46  ar  
 46  39  40  1   
 47  39  41  ar  
 48  41  42  1   
 49  41  43  ar  
 50  43  44  1   
 51  43  45  ar  
 52  45  46  ar  
 53  46  47  1   
 54  48  49  1   
 55  48  50  1   
 56  51  52  ar  
 57  52  53  1   
@<TRIPOS>SUBSTRUCTURE
  1 LIG  24 GROUP 4 **** **** 0
@<TRIPOS>PROPERTY_DATA
index	|	ligand437
Name	|	NIM-UNI-363-1
ChemPlp	|	-93.8368
MM-GBSA Nwat=0	|	4.214
STDEV0	|	4.4603
MM-GBSA Nwat=30	|	-1.6195
STDEV30	|	14.6119
MM-GBSA Nwat=60	|	-41.4605
STDEV60	|	13.996
ST.DEV < 10%	|	N
RMSD LIG < 2	|	
DIST < 5	|	
DIST < 3.5	|	N

# MOE 2019.01 (io_trps.svl 2018.10)

@<TRIPOS>MOLECULE
ligand384
55 57 1 0 0 
SMALL
NO_CHARGES


@<TRIPOS>ATOM
  1 O1       5.6220    -3.1770    20.4020 O.2   1 LIG   0.0000 
  2 C2       5.4950    -2.6310    21.4630 C.2   1 LIG   0.0000 
  3 C3       5.2510    -3.4540    22.7170 C.3   1 LIG   0.0000 
  4 C6       6.5740    -4.0090    23.2240 C.3   1 LIG   0.0000 
  5 S7       7.3670    -2.6810    24.1640 S.o2  1 LIG   0.0000 
  6 O8       6.4590    -2.1980    25.1720 O.2   1 LIG   0.0000 
  7 O9       7.7140    -1.6040    23.2740 O.2   1 LIG   0.0000 
  8 N10      8.7170    -3.2520    24.8780 N.am  1 LIG   0.0000 
  9 C12      9.7810    -2.2420    24.7940 C.3   1 LIG   0.0000 
 10 C15     10.3830    -2.2550    23.3990 C.3   1 LIG   0.0000 
 11 C18     11.5200    -1.2480    23.3270 C.ar  1 LIG   0.0000 
 12 C19     11.5020    -0.1300    24.1550 C.ar  1 LIG   0.0000 
 13 C21     12.5440     0.7900    24.0860 C.ar  1 LIG   0.0000 
 14 C23     13.5920     0.5880    23.1950 C.ar  1 LIG   0.0000 
 15 C25     13.6000    -0.5330    22.3740 C.ar  1 LIG   0.0000 
 16 C27     12.5640    -1.4600    22.4330 C.ar  1 LIG   0.0000 
 17 C29      6.3640    -5.2110    24.1360 C.3   1 LIG   0.0000 
 18 C32      5.7680    -6.4010    23.4000 C.3   1 LIG   0.0000 
 19 C35      6.6200    -6.7790    22.1980 C.3   1 LIG   0.0000 
 20 C38      6.9120    -5.5980    21.2870 C.3   1 LIG   0.0000 
 21 C41      7.4820    -4.4310    22.0780 C.3   1 LIG   0.0000 
 22 N44      5.5700    -1.2650    21.5430 N.am  1 LIG   0.0000 
 23 C46      5.7940    -0.5070    20.3880 C.ar  1 LIG   0.0000 
 24 C47      5.0280     0.6260    20.1380 C.ar  1 LIG   0.0000 
 25 C49      5.2520     1.3770    18.9900 C.ar  1 LIG   0.0000 
 26 C51      6.2480     0.9690    18.1090 C.ar  1 LIG   0.0000 
 27 N53      6.9780    -0.1270    18.3630 N.ar  1 LIG   0.0000 
 28 C54      6.7740    -0.8620    19.4670 C.ar  1 LIG   0.0000 
 29 H19     10.7470     0.0110    24.7950 H     1 LIG   0.0000 
 30 H21     12.5380     1.5970    24.6770 H     1 LIG   0.0000 
 31 H23     14.3410     1.2490    23.1460 H     1 LIG   0.0000 
 32 H25     14.3560    -0.6740    21.7350 H     1 LIG   0.0000 
 33 H27     12.5700    -2.2660    21.8410 H     1 LIG   0.0000 
 34 H47      4.3160     0.9000    20.7840 H     1 LIG   0.0000 
 35 H49      4.7080     2.1950    18.8020 H     1 LIG   0.0000 
 36 H51      6.4220     1.4990    17.2780 H     1 LIG   0.0000 
 37 H54      7.3330    -1.6740    19.6290 H     1 LIG   0.0000 
 38 H31      4.6320    -4.2100    22.5040 H     1 LIG   0.0000 
 39 H32      4.8400    -2.8750    23.4210 H     1 LIG   0.0000 
 40 H121    10.4910    -2.4490    25.4660 H     1 LIG   0.0000 
 41 H122     9.3970    -1.3370    24.9820 H     1 LIG   0.0000 
 42 H151    10.7350    -3.1690    23.1970 H     1 LIG   0.0000 
 43 H152     9.6810    -2.0130    22.7300 H     1 LIG   0.0000 
 44 H291     5.7460    -4.9480    24.8760 H     1 LIG   0.0000 
 45 H292     7.2480    -5.4810    24.5200 H     1 LIG   0.0000 
 46 H321     4.8480    -6.1640    23.0870 H     1 LIG   0.0000 
 47 H322     5.7180    -7.1800    24.0240 H     1 LIG   0.0000 
 48 H351     6.1370    -7.4770    21.6710 H     1 LIG   0.0000 
 49 H352     7.4880    -7.1510    22.5270 H     1 LIG   0.0000 
 50 H381     7.5740    -5.8770    20.5910 H     1 LIG   0.0000 
 51 H382     6.0640    -5.3090    20.8430 H     1 LIG   0.0000 
 52 H411     8.3690    -4.7000    22.4530 H     1 LIG   0.0000 
 53 H412     7.6030    -3.6530    21.4610 H     1 LIG   0.0000 
 54 H10      9.0120    -4.0870    24.4130 H     1 LIG   0.0000 
 55 H44      5.4640    -0.8100    22.4270 H     1 LIG   0.0000 
@<TRIPOS>BOND
  1   1   2  2   
  2   2   3  1   
  3   2  22  am  
  4   3   4  1   
  5   3  38  1   
  6   3  39  1   
  7   4   5  1   
  8   4  17  1   
  9   4  21  1   
 10   5   6  2   
 11   5   7  2   
 12   5   8  am  
 13   8   9  1   
 14   8  54  1   
 15   9  10  1   
 16   9  40  1   
 17   9  41  1   
 18  10  11  1   
 19  10  42  1   
 20  10  43  1   
 21  11  12  ar  
 22  11  16  ar  
 23  12  13  ar  
 24  12  29  1   
 25  13  14  ar  
 26  13  30  1   
 27  14  15  ar  
 28  14  31  1   
 29  15  16  ar  
 30  15  32  1   
 31  16  33  1   
 32  17  18  1   
 33  17  44  1   
 34  17  45  1   
 35  18  19  1   
 36  18  46  1   
 37  18  47  1   
 38  19  20  1   
 39  19  48  1   
 40  19  49  1   
 41  20  21  1   
 42  20  50  1   
 43  20  51  1   
 44  21  52  1   
 45  21  53  1   
 46  22  23  1   
 47  22  55  1   
 48  23  24  ar  
 49  23  28  ar  
 50  24  25  ar  
 51  24  34  1   
 52  25  26  ar  
 53  25  35  1   
 54  26  27  ar  
 55  26  36  1   
 56  27  28  ar  
 57  28  37  1   
@<TRIPOS>SUBSTRUCTURE
  1 LIG   7 GROUP 4 **** **** 0
@<TRIPOS>PROPERTY_DATA
index	|	ligand384
Name	|	MAK-UNK-b2c-6
ChemPlp	|	-91.9587
MM-GBSA Nwat=0	|	16.1094
STDEV0	|	5.407
MM-GBSA Nwat=30	|	1.413
STDEV30	|	10.6334
MM-GBSA Nwat=60	|	0.536
STDEV60	|	10.0133
ST.DEV < 10%	|	N
RMSD LIG < 2	|	
DIST < 5	|	
DIST < 3.5	|	N

# MOE 2019.01 (io_trps.svl 2018.10)

@<TRIPOS>MOLECULE
ligand618
56 57 1 0 0 
SMALL
USER_CHARGES


@<TRIPOS>ATOM
  1 C1      12.7000     1.8480    24.1470 C.3   1 LIG   0.0000 
  2 N5      12.3710     1.0020    22.9900 N.am  1 LIG   0.0000 
  3 C6      13.2720    -0.0900    22.5980 C.3   1 LIG   0.0000 
  4 C10     11.2230     1.2320    22.2790 C.2   1 LIG   0.0000 
  5 O11     10.9680     2.3400    21.8920 O.2   1 LIG   0.0000 
  6 C12     10.3160     0.1380    21.9920 C.ar  1 LIG   0.0000 
  7 C13     10.4290    -1.0380    22.7260 C.ar  1 LIG   0.0000 
  8 C15      9.5600    -2.0890    22.4520 C.ar  1 LIG   0.0000 
  9 C17      8.5930    -1.9650    21.4600 C.ar  1 LIG   0.0000 
 10 C18      7.6660    -3.1410    21.1970 C.3   1 LIG   0.0000 
 11 N21      7.3290    -3.7940    22.4700 N.am  1 LIG   0.0000 
 12 S23      6.1000    -4.8380    22.2360 S.o2  1 LIG   0.0000 
 13 C24      6.7310    -6.5340    22.2960 C.3   1 LIG   0.0000 
 14 O28      5.1130    -4.6570    23.2680 O.2   1 LIG   0.0000 
 15 O29      5.5000    -4.5940    20.9500 O.2   1 LIG   0.0000 
 16 C30      8.4900    -0.7830    20.7320 C.ar  1 LIG   0.0000 
 17 C31      7.4450    -0.6140    19.6410 C.3   1 LIG   0.0000 
 18 N34      6.6740     0.6130    19.8870 N.4   1 LIG   1.0000 
 19 C35      5.5850     0.6430    18.8970 C.3   1 LIG   0.0000 
 20 C38      4.6820     1.8530    19.0820 C.3   1 LIG   0.0000 
 21 N41      4.3320     2.0540    20.4970 N.am  1 LIG   0.0000 
 22 C42      3.0760     2.5930    20.8040 C.2   1 LIG   0.0000 
 23 O43      2.7620     2.7680    21.9480 O.2   1 LIG   0.0000 
 24 C44      2.1120     2.9560    19.6860 C.3   1 LIG   0.0000 
 25 CL47     0.4620     2.4690    20.1450 Cl    1 LIG   0.0000 
 26 C48      5.2420     1.6990    21.5980 C.3   1 LIG   0.0000 
 27 C51      6.1130     0.5030    21.2440 C.3   1 LIG   0.0000 
 28 C54      9.3540     0.2750    20.9960 C.ar  1 LIG   0.0000 
 29 H13     11.1250    -1.1270    23.4390 H     1 LIG   0.0000 
 30 H15      9.6310    -2.9400    22.9730 H     1 LIG   0.0000 
 31 H54      9.2830     1.1260    20.4760 H     1 LIG   0.0000 
 32 H11     13.5650     1.5440    24.5460 H     1 LIG   0.0000 
 33 H12     12.7860     2.7990    23.8500 H     1 LIG   0.0000 
 34 H13     11.9740     1.7760    24.8300 H     1 LIG   0.0000 
 35 H61     14.0550    -0.1160    23.2190 H     1 LIG   0.0000 
 36 H62     12.7820    -0.9600    22.6430 H     1 LIG   0.0000 
 37 H63     13.5940     0.0630    21.6630 H     1 LIG   0.0000 
 38 H181     6.8290    -2.8130    20.7580 H     1 LIG   0.0000 
 39 H182     8.1230    -3.7970    20.5960 H     1 LIG   0.0000 
 40 H241     7.4160    -6.6600    21.5790 H     1 LIG   0.0000 
 41 H242     7.1470    -6.7040    23.1890 H     1 LIG   0.0000 
 42 H243     5.9770    -7.1750    22.1520 H     1 LIG   0.0000 
 43 H311     7.8980    -0.5500    18.7520 H     1 LIG   0.0000 
 44 H312     6.8290    -1.4010    19.6460 H     1 LIG   0.0000 
 45 H34      7.2550     1.4230    19.8050 H     1 LIG   0.0000 
 46 H351     5.0360    -0.1870    18.9950 H     1 LIG   0.0000 
 47 H352     5.9830     0.6740    17.9800 H     1 LIG   0.0000 
 48 H381     5.1580     2.6670    18.7470 H     1 LIG   0.0000 
 49 H382     3.8430     1.7170    18.5560 H     1 LIG   0.0000 
 50 H441     2.1370     3.9440    19.5320 H     1 LIG   0.0000 
 51 H442     2.3780     2.4800    18.8480 H     1 LIG   0.0000 
 52 H481     4.6990     1.4770    22.4080 H     1 LIG   0.0000 
 53 H482     5.8310     2.4820    21.7960 H     1 LIG   0.0000 
 54 H511     6.8640     0.4450    21.9010 H     1 LIG   0.0000 
 55 H512     5.5580    -0.3280    21.2980 H     1 LIG   0.0000 
 56 H21      8.1270    -4.2890    22.8120 H     1 LIG   0.0000 
@<TRIPOS>BOND
  1   1   2  1   
  2   1  32  1   
  3   1  33  1   
  4   1  34  1   
  5   2   3  1   
  6   2   4  am  
  7   3  35  1   
  8   3  36  1   
  9   3  37  1   
 10   4   5  2   
 11   4   6  1   
 12   6   7  ar  
 13   6  28  ar  
 14   7   8  ar  
 15   7  29  1   
 16   8   9  ar  
 17   8  30  1   
 18   9  10  1   
 19   9  16  ar  
 20  10  11  1   
 21  10  38  1   
 22  10  39  1   
 23  11  12  am  
 24  11  56  1   
 25  12  13  1   
 26  12  14  2   
 27  12  15  2   
 28  13  40  1   
 29  13  41  1   
 30  13  42  1   
 31  16  17  1   
 32  16  28  ar  
 33  17  18  1   
 34  17  43  1   
 35  17  44  1   
 36  18  19  1   
 37  18  27  1   
 38  18  45  1   
 39  19  20  1   
 40  19  46  1   
 41  19  47  1   
 42  20  21  1   
 43  20  48  1   
 44  20  49  1   
 45  21  22  am  
 46  21  26  1   
 47  22  23  2   
 48  22  24  1   
 49  24  25  1   
 50  24  50  1   
 51  24  51  1   
 52  26  27  1   
 53  26  52  1   
 54  26  53  1   
 55  27  54  1   
 56  27  55  1   
 57  28  31  1   
@<TRIPOS>SUBSTRUCTURE
  1 LIG  27 GROUP 4 **** **** 0
@<TRIPOS>PROPERTY_DATA
index	|	ligand618
Name	|	TAM-UNI-d1c-4
ChemPlp	|	-92.1632
MM-GBSA Nwat=0	|	40.2581
STDEV0	|	5.8925
MM-GBSA Nwat=30	|	1.7641
STDEV30	|	10.2673
MM-GBSA Nwat=60	|	-17.5754
STDEV60	|	11.3928
ST.DEV < 10%	|	N
RMSD LIG < 2	|	
DIST < 5	|	
DIST < 3.5	|	N

# MOE 2019.01 (io_trps.svl 2018.10)

@<TRIPOS>MOLECULE
ligand451
47 49 1 0 0 
SMALL
NO_CHARGES


@<TRIPOS>ATOM
  1 O1       5.5000    -3.6640    20.0660 O.2   1 LIG   0.0000 
  2 C2       6.3280    -3.0360    20.6660 C.2   1 LIG   0.0000 
  3 C3       7.6280    -3.7020    21.0890 C.3   1 LIG   0.0000 
  4 N6       7.5040    -4.1820    22.4730 N.pl3 1 LIG   0.0000 
  5 C7       8.4720    -4.1140    23.4240 C.2   1 LIG   0.0000 
  6 C9       7.9070    -4.6750    24.5260 C.2   1 LIG   0.0000 
  7 C10      8.5760    -4.8520    25.8800 C.3   1 LIG   0.0000 
  8 N13      8.0270    -3.8720    26.8280 N.am  1 LIG   0.0000 
  9 C14      8.2490    -2.5340    26.6370 C.2   1 LIG   0.0000 
 10 O15      9.1360    -2.1710    25.9140 O.2   1 LIG   0.0000 
 11 C16      7.3740    -1.5100    27.3400 C.3   1 LIG   0.0000 
 12 CL19     7.5990     0.0840    26.5810 Cl    1 LIG   0.0000 
 13 C20      7.2390    -4.3290    27.9840 C.3   1 LIG   0.0000 
 14 C21      5.8320    -4.5880    27.4700 C.3   1 LIG   0.0000 
 15 C24      5.1660    -5.6760    28.3050 C.3   1 LIG   0.0000 
 16 S27      6.4430    -6.2370    29.4520 S.o2  1 LIG   0.0000 
 17 O28      6.4320    -7.7340    29.6560 O.2   1 LIG   0.0000 
 18 O29      6.4040    -5.4730    30.7540 O.2   1 LIG   0.0000 
 19 C30      7.7830    -5.6810    28.3790 C.3   1 LIG   0.0000 
 20 N33      6.6380    -5.0540    24.2040 N.2   1 LIG   0.0000 
 21 N34      6.4430    -4.7470    22.9940 N.2   1 LIG   0.0000 
 22 N35      6.1030    -1.7190    20.9690 N.am  1 LIG   0.0000 
 23 C37      5.9360    -0.7830    19.9410 C.ar  1 LIG   0.0000 
 24 C38      5.5980     0.5310    20.2440 C.ar  1 LIG   0.0000 
 25 C40      5.4330     1.4590    19.2210 C.ar  1 LIG   0.0000 
 26 C42      5.6110     1.0420    17.9060 C.ar  1 LIG   0.0000 
 27 N44      5.9360    -0.2300    17.6300 N.ar  1 LIG   0.0000 
 28 C45      6.0990    -1.1360    18.6060 C.ar  1 LIG   0.0000 
 29 H7       9.3940    -3.7370    23.3340 H     1 LIG   0.0000 
 30 H38      5.4730     0.8090    21.1960 H     1 LIG   0.0000 
 31 H40      5.1910     2.4070    19.4280 H     1 LIG   0.0000 
 32 H42      5.4960     1.6970    17.1600 H     1 LIG   0.0000 
 33 H45      6.3410    -2.0770    18.3700 H     1 LIG   0.0000 
 34 H31      7.8190    -4.4740    20.4840 H     1 LIG   0.0000 
 35 H32      8.3750    -3.0400    21.0320 H     1 LIG   0.0000 
 36 H101     8.4030    -5.7770    26.2180 H     1 LIG   0.0000 
 37 H102     9.5610    -4.7090    25.7860 H     1 LIG   0.0000 
 38 H161     6.4150    -1.7820    27.2640 H     1 LIG   0.0000 
 39 H162     7.6300    -1.4580    28.3050 H     1 LIG   0.0000 
 40 H20      7.2550    -3.6740    28.7400 H     1 LIG   0.0000 
 41 H211     5.8770    -4.8840    26.5150 H     1 LIG   0.0000 
 42 H212     5.2960    -3.7460    27.5330 H     1 LIG   0.0000 
 43 H241     4.3830    -5.3050    28.8050 H     1 LIG   0.0000 
 44 H242     4.8620    -6.4300    27.7220 H     1 LIG   0.0000 
 45 H301     7.9020    -6.2820    27.5880 H     1 LIG   0.0000 
 46 H302     8.6500    -5.6050    28.8730 H     1 LIG   0.0000 
 47 H35      6.0570    -1.4270    21.9240 H     1 LIG   0.0000 
@<TRIPOS>BOND
  1   1   2  2   
  2   2   3  1   
  3   2  22  am  
  4   3   4  1   
  5   3  34  1   
  6   3  35  1   
  7   4   5  1   
  8   4  21  1   
  9   5   6  2   
 10   5  29  1   
 11   6   7  1   
 12   6  20  1   
 13   7   8  1   
 14   7  36  1   
 15   7  37  1   
 16   8   9  am  
 17   8  13  1   
 18   9  10  2   
 19   9  11  1   
 20  11  12  1   
 21  11  38  1   
 22  11  39  1   
 23  13  14  1   
 24  13  19  1   
 25  13  40  1   
 26  14  15  1   
 27  14  41  1   
 28  14  42  1   
 29  15  16  1   
 30  15  43  1   
 31  15  44  1   
 32  16  17  2   
 33  16  18  2   
 34  16  19  1   
 35  19  45  1   
 36  19  46  1   
 37  20  21  2   
 38  22  23  1   
 39  22  47  1   
 40  23  24  ar  
 41  23  28  ar  
 42  24  25  ar  
 43  24  30  1   
 44  25  26  ar  
 45  25  31  1   
 46  26  27  ar  
 47  26  32  1   
 48  27  28  ar  
 49  28  33  1   
@<TRIPOS>SUBSTRUCTURE
  1 LIG   6 GROUP 4 **** **** 0
@<TRIPOS>PROPERTY_DATA
index	|	ligand451
Name	|	NIM-UNI-594-1
ChemPlp	|	-94.1145
MM-GBSA Nwat=0	|	29.5584
STDEV0	|	11.4569
MM-GBSA Nwat=30	|	3.5366
STDEV30	|	13.7381
MM-GBSA Nwat=60	|	-8.7833
STDEV60	|	16.5742
ST.DEV < 10%	|	N
RMSD LIG < 2	|	
DIST < 5	|	
DIST < 3.5	|	N

# MOE 2019.01 (io_trps.svl 2018.10)

@<TRIPOS>MOLECULE
ligand164
74 77 1 0 0 
SMALL
NO_CHARGES


@<TRIPOS>ATOM
  1 C1       6.7000    -6.5410    22.0650 C.3   1 LIG   0.0000 
  2 C5       5.4970    -5.6460    21.8180 C.3   1 LIG   0.0000 
  3 N6       4.3470    -6.1490    22.5840 N.3   1 LIG   0.0000 
  4 N9       5.8090    -4.2750    22.2460 N.3   1 LIG   0.0000 
  5 C11      7.0790    -3.8500    21.6410 C.3   1 LIG   0.0000 
  6 C12      6.9330    -2.4400    21.0940 C.3   1 LIG   0.0000 
  7 C15      5.9250    -2.4400    19.9560 C.2   1 LIG   0.0000 
  8 N16      5.5000    -1.2540    19.4170 N.am  1 LIG   0.0000 
  9 O19      5.5010    -3.4780    19.5300 O.2   1 LIG   0.0000 
 10 C20      8.1760    -3.8740    22.6940 C.2   1 LIG   0.0000 
 11 O21      8.1980    -4.7480    23.5160 O.2   1 LIG   0.0000 
 12 N22      9.1370    -2.8990    22.7030 N.am  1 LIG   0.0000 
 13 C24     10.1980    -2.9220    23.7220 C.3   1 LIG   0.0000 
 14 C25     11.4790    -2.2930    23.1950 C.3   1 LIG   0.0000 
 15 C28     11.3230    -0.7860    23.0560 C.3   1 LIG   0.0000 
 16 C31     11.0060    -0.1570    24.4040 C.3   1 LIG   0.0000 
 17 C32     10.7870     1.3310    24.1740 C.2   1 LIG   0.0000 
 18 N33      9.6490     1.9400    23.9480 N.2   1 LIG   0.0000 
 19 C34      9.7060     3.3050    23.7700 C.ar  1 LIG   0.0000 
 20 C35      8.7510     4.2860    23.5160 C.ar  1 LIG   0.0000 
 21 C37      9.0800     5.6330    23.3760 C.ar  1 LIG   0.0000 
 22 C38      8.0740     6.6420    23.1110 C.ar  1 LIG   0.0000 
 23 C39      7.8200     7.6230    24.0640 C.ar  1 LIG   0.0000 
 24 C41      6.8540     8.5900    23.8070 C.ar  1 LIG   0.0000 
 25 C43      6.1520     8.5700    22.6060 C.ar  1 LIG   0.0000 
 26 S44      4.9440     9.7790    22.2840 S.o2  1 LIG   0.0000 
 27 N45      5.0190    10.2190    20.7160 N.am  1 LIG   0.0000 
 28 O48      3.6390     9.2420    22.5700 O.2   1 LIG   0.0000 
 29 O49      5.1820    10.9290    23.1170 O.2   1 LIG   0.0000 
 30 C50      6.4150     7.5840    21.6600 C.ar  1 LIG   0.0000 
 31 O51      5.7320     7.5660    20.4940 O.3   1 LIG   0.0000 
 32 C53      7.3790     6.6120    21.9060 C.ar  1 LIG   0.0000 
 33 C55     10.3900     6.0820    23.4810 C.ar  1 LIG   0.0000 
 34 C57     11.3880     5.1540    23.7320 C.ar  1 LIG   0.0000 
 35 C59     10.9760     3.8360    23.8580 C.ar  1 LIG   0.0000 
 36 S60     12.0030     2.5210    24.1650 S.3   1 LIG   0.0000 
 37 C61      9.7510    -0.7410    25.0390 C.3   1 LIG   0.0000 
 38 N64      9.6740    -2.2060    24.8970 N.am  1 LIG   0.0000 
 39 C65      9.0830    -2.9620    25.9160 C.2   1 LIG   0.0000 
 40 O66      9.0160    -4.1560    25.8150 O.2   1 LIG   0.0000 
 41 C67      8.5260    -2.2710    27.1500 C.3   1 LIG   0.0000 
 42 CL70     7.5300    -0.8830    26.6530 Cl    1 LIG   0.0000 
 43 H35      7.7930     4.0140    23.4310 H     1 LIG   0.0000 
 44 H55     10.6080     7.0520    23.3780 H     1 LIG   0.0000 
 45 H57     12.3490     5.4200    23.8180 H     1 LIG   0.0000 
 46 H39      8.3270     7.6320    24.9260 H     1 LIG   0.0000 
 47 H41      6.6630     9.3000    24.4850 H     1 LIG   0.0000 
 48 H53      7.5690     5.9030    21.2280 H     1 LIG   0.0000 
 49 H11      6.4880    -7.4740    21.7740 H     1 LIG   0.0000 
 50 H12      7.4820    -6.1990    21.5440 H     1 LIG   0.0000 
 51 H13      6.9230    -6.5390    23.0400 H     1 LIG   0.0000 
 52 H5       5.2740    -5.6480    20.8430 H     1 LIG   0.0000 
 53 H11      7.3190    -4.4740    20.8960 H     1 LIG   0.0000 
 54 H121     6.6150    -1.8320    21.8210 H     1 LIG   0.0000 
 55 H122     7.8180    -2.1200    20.7550 H     1 LIG   0.0000 
 56 H24     10.3830    -3.8710    23.9760 H     1 LIG   0.0000 
 57 H251    11.6920    -2.6850    22.3000 H     1 LIG   0.0000 
 58 H252    12.2260    -2.4880    23.8300 H     1 LIG   0.0000 
 59 H281    12.1750    -0.3990    22.7030 H     1 LIG   0.0000 
 60 H282    10.5780    -0.5900    22.4180 H     1 LIG   0.0000 
 61 H31     11.7820    -0.2860    25.0220 H     1 LIG   0.0000 
 62 H611     9.7490    -0.5130    26.0120 H     1 LIG   0.0000 
 63 H612     8.9510    -0.3340    24.5990 H     1 LIG   0.0000 
 64 H671     7.9650    -2.9160    27.6680 H     1 LIG   0.0000 
 65 H672     9.2820    -1.9520    27.7220 H     1 LIG   0.0000 
 66 H61      4.1350    -7.0820    22.2930 H     1 LIG   0.0000 
 67 H62      4.5700    -6.1470    23.5590 H     1 LIG   0.0000 
 68 H9       5.8890    -4.2470    23.2430 H     1 LIG   0.0000 
 69 H161     5.8540    -0.3880    19.7720 H     1 LIG   0.0000 
 70 H162     4.8370    -1.2540    18.6690 H     1 LIG   0.0000 
 71 H22      9.1180    -2.1710    22.0180 H     1 LIG   0.0000 
 72 H451     4.3960    10.9840    20.5540 H     1 LIG   0.0000 
 73 H452     5.9530    10.4960    20.4920 H     1 LIG   0.0000 
 74 H51      5.4070     6.6980    20.1180 H     1 LIG   0.0000 
@<TRIPOS>BOND
  1   1   2  1   
  2   1  49  1   
  3   1  50  1   
  4   1  51  1   
  5   2   3  1   
  6   2   4  1   
  7   2  52  1   
  8   3  66  1   
  9   3  67  1   
 10   4   5  1   
 11   4  68  1   
 12   5   6  1   
 13   5  10  1   
 14   5  53  1   
 15   6   7  1   
 16   6  54  1   
 17   6  55  1   
 18   7   8  am  
 19   7   9  2   
 20   8  69  1   
 21   8  70  1   
 22  10  11  2   
 23  10  12  am  
 24  12  13  1   
 25  12  71  1   
 26  13  14  1   
 27  13  38  1   
 28  13  56  1   
 29  14  15  1   
 30  14  57  1   
 31  14  58  1   
 32  15  16  1   
 33  15  59  1   
 34  15  60  1   
 35  16  17  1   
 36  16  37  1   
 37  16  61  1   
 38  17  18  2   
 39  17  36  1   
 40  18  19  1   
 41  19  20  ar  
 42  19  35  ar  
 43  20  21  ar  
 44  20  43  1   
 45  21  22  1   
 46  21  33  ar  
 47  22  23  ar  
 48  22  32  ar  
 49  23  24  ar  
 50  23  46  1   
 51  24  25  ar  
 52  24  47  1   
 53  25  26  1   
 54  25  30  ar  
 55  26  27  am  
 56  26  28  2   
 57  26  29  2   
 58  27  72  1   
 59  27  73  1   
 60  30  31  1   
 61  30  32  ar  
 62  31  74  1   
 63  32  48  1   
 64  33  34  ar  
 65  33  44  1   
 66  34  35  ar  
 67  34  45  1   
 68  35  36  1   
 69  37  38  1   
 70  37  62  1   
 71  37  63  1   
 72  38  39  am  
 73  39  40  2   
 74  39  41  1   
 75  41  42  1   
 76  41  64  1   
 77  41  65  1   
@<TRIPOS>SUBSTRUCTURE
  1 LIG  18 GROUP 4 **** **** 0
@<TRIPOS>PROPERTY_DATA
index	|	ligand164
Name	|	DAV-CRI-f9b-5
ChemPlp	|	-100.677
MM-GBSA Nwat=0	|	-3.8765
STDEV0	|	4.0058
MM-GBSA Nwat=30	|	4.5141
STDEV30	|	10.7932
MM-GBSA Nwat=60	|	9.2604
STDEV60	|	9.5283
ST.DEV < 10%	|	N
RMSD LIG < 2	|	
DIST < 5	|	
DIST < 3.5	|	N

# MOE 2019.01 (io_trps.svl 2018.10)

@<TRIPOS>MOLECULE
ligand160
76 79 1 0 0 
SMALL
NO_CHARGES


@<TRIPOS>ATOM
  1 C1       5.5000    -0.6200    19.7390 C.3   1 LIG   0.0000 
  2 C5       6.4670    -0.7110    20.9090 C.3   1 LIG   0.0000 
  3 N6       6.1140     0.2990    21.9160 N.3   1 LIG   0.0000 
  4 N9       6.3850    -2.0510    21.5080 N.3   1 LIG   0.0000 
  5 C11      7.4530    -2.8990    20.9590 C.3   1 LIG   0.0000 
  6 C12      6.8610    -4.2210    20.4950 C.3   1 LIG   0.0000 
  7 C15      5.9900    -4.8000    21.5980 C.2   1 LIG   0.0000 
  8 N16      6.2860    -6.0280    22.1300 N.am  1 LIG   0.0000 
  9 O19      5.0430    -4.1840    22.0010 O.2   1 LIG   0.0000 
 10 C20      8.4960    -3.1600    22.0340 C.2   1 LIG   0.0000 
 11 O21      8.4140    -4.1380    22.7240 O.2   1 LIG   0.0000 
 12 N22      9.5290    -2.2800    22.2130 N.am  1 LIG   0.0000 
 13 C24     10.5390    -2.5320    23.2530 C.3   1 LIG   0.0000 
 14 C25     11.8860    -1.9420    22.8640 C.3   1 LIG   0.0000 
 15 C28     11.8520    -0.4240    22.9370 C.3   1 LIG   0.0000 
 16 C31     11.5250     0.0340    24.3500 C.3   1 LIG   0.0000 
 17 C32     11.4300     1.5520    24.3290 C.2   1 LIG   0.0000 
 18 N33     10.3990     2.2860    24.6670 N.2   1 LIG   0.0000 
 19 C34     10.5590     3.6490    24.5640 C.ar  1 LIG   0.0000 
 20 C35      9.7200     4.7310    24.8200 C.ar  1 LIG   0.0000 
 21 C37     10.1300     6.0490    24.6300 C.ar  1 LIG   0.0000 
 22 C38      9.2130     7.2250    24.9140 C.3   1 LIG   0.0000 
 23 C41      8.2230     7.3830    23.7700 C.ar  1 LIG   0.0000 
 24 C42      8.2610     6.5060    22.6910 C.ar  1 LIG   0.0000 
 25 C44      7.3460     6.6700    21.6570 C.ar  1 LIG   0.0000 
 26 C46      6.4020     7.6920    21.6900 C.ar  1 LIG   0.0000 
 27 C48      6.3820     8.5570    22.7790 C.ar  1 LIG   0.0000 
 28 S49      5.2050     9.8380    22.8290 S.o2  1 LIG   0.0000 
 29 N50      5.0640    10.5050    21.3490 N.am  1 LIG   0.0000 
 30 O53      3.9320     9.3050    23.2390 O.2   1 LIG   0.0000 
 31 O54      5.6300    10.8430    23.7700 O.2   1 LIG   0.0000 
 32 C55      7.2880     8.4120    23.8240 C.ar  1 LIG   0.0000 
 33 C57     11.4020     6.3620    24.1690 C.ar  1 LIG   0.0000 
 34 C59     12.2830     5.3270    23.8950 C.ar  1 LIG   0.0000 
 35 C61     11.7990     4.0470    24.1120 C.ar  1 LIG   0.0000 
 36 S62     12.6700     2.6140    23.8470 S.3   1 LIG   0.0000 
 37 C63     10.2020    -0.5290    24.8530 C.3   1 LIG   0.0000 
 38 N66     10.0190    -1.9480    24.5000 N.am  1 LIG   0.0000 
 39 C67      9.3270    -2.7880    25.3800 C.2   1 LIG   0.0000 
 40 O68      9.1740    -3.9470    25.1060 O.2   1 LIG   0.0000 
 41 C69      8.7710    -2.2340    26.6810 C.3   1 LIG   0.0000 
 42 CL72     7.6450    -3.4130    27.3950 Cl    1 LIG   0.0000 
 43 H35      8.7940     4.5560    25.1530 H     1 LIG   0.0000 
 44 H57     11.6780     7.3140    24.0380 H     1 LIG   0.0000 
 45 H59     13.2100     5.4940    23.5610 H     1 LIG   0.0000 
 46 H42      8.9360     5.7690    22.6600 H     1 LIG   0.0000 
 47 H44      7.3660     6.0430    20.8770 H     1 LIG   0.0000 
 48 H46      5.7480     7.8020    20.9420 H     1 LIG   0.0000 
 49 H55      7.2680     9.0380    24.6040 H     1 LIG   0.0000 
 50 H11      5.5560     0.2910    19.3310 H     1 LIG   0.0000 
 51 H12      5.7410    -1.3080    19.0540 H     1 LIG   0.0000 
 52 H13      4.5690    -0.7840    20.0630 H     1 LIG   0.0000 
 53 H5       7.3990    -0.5470    20.5850 H     1 LIG   0.0000 
 54 H11      7.8820    -2.4360    20.1840 H     1 LIG   0.0000 
 55 H121     6.3070    -4.0680    19.6770 H     1 LIG   0.0000 
 56 H122     7.6000    -4.8600    20.2830 H     1 LIG   0.0000 
 57 H24     10.6400    -3.5200    23.3740 H     1 LIG   0.0000 
 58 H251    12.1080    -2.2210    21.9290 H     1 LIG   0.0000 
 59 H252    12.5870    -2.2860    23.4890 H     1 LIG   0.0000 
 60 H281    12.7460    -0.0620    22.6730 H     1 LIG   0.0000 
 61 H282    11.1540    -0.0790    22.3100 H     1 LIG   0.0000 
 62 H31     12.2600    -0.2440    24.9680 H     1 LIG   0.0000 
 63 H381     9.7570     8.0590    25.0010 H     1 LIG   0.0000 
 64 H382     8.7150     7.0610    25.7650 H     1 LIG   0.0000 
 65 H631    10.1730    -0.4400    25.8490 H     1 LIG   0.0000 
 66 H632     9.4550     0.0000    24.4500 H     1 LIG   0.0000 
 67 H691     9.5220    -2.0620    27.3180 H     1 LIG   0.0000 
 68 H692     8.2860    -1.3790    26.4980 H     1 LIG   0.0000 
 69 H61      6.1690     1.2100    21.5080 H     1 LIG   0.0000 
 70 H62      5.1820     0.1350    22.2400 H     1 LIG   0.0000 
 71 H9       6.4930    -1.9790    22.5000 H     1 LIG   0.0000 
 72 H161     7.0750    -6.5420    21.7940 H     1 LIG   0.0000 
 73 H162     5.7120    -6.4090    22.8550 H     1 LIG   0.0000 
 74 H22      9.5980    -1.4650    21.6380 H     1 LIG   0.0000 
 75 H501     5.9650    10.7940    21.0260 H     1 LIG   0.0000 
 76 H502     4.6820     9.8320    20.7150 H     1 LIG   0.0000 
@<TRIPOS>BOND
  1   1   2  1   
  2   1  50  1   
  3   1  51  1   
  4   1  52  1   
  5   2   3  1   
  6   2   4  1   
  7   2  53  1   
  8   3  69  1   
  9   3  70  1   
 10   4   5  1   
 11   4  71  1   
 12   5   6  1   
 13   5  10  1   
 14   5  54  1   
 15   6   7  1   
 16   6  55  1   
 17   6  56  1   
 18   7   8  am  
 19   7   9  2   
 20   8  72  1   
 21   8  73  1   
 22  10  11  2   
 23  10  12  am  
 24  12  13  1   
 25  12  74  1   
 26  13  14  1   
 27  13  38  1   
 28  13  57  1   
 29  14  15  1   
 30  14  58  1   
 31  14  59  1   
 32  15  16  1   
 33  15  60  1   
 34  15  61  1   
 35  16  17  1   
 36  16  37  1   
 37  16  62  1   
 38  17  18  2   
 39  17  36  1   
 40  18  19  1   
 41  19  20  ar  
 42  19  35  ar  
 43  20  21  ar  
 44  20  43  1   
 45  21  22  1   
 46  21  33  ar  
 47  22  23  1   
 48  22  63  1   
 49  22  64  1   
 50  23  24  ar  
 51  23  32  ar  
 52  24  25  ar  
 53  24  46  1   
 54  25  26  ar  
 55  25  47  1   
 56  26  27  ar  
 57  26  48  1   
 58  27  28  1   
 59  27  32  ar  
 60  28  29  am  
 61  28  30  2   
 62  28  31  2   
 63  29  75  1   
 64  29  76  1   
 65  32  49  1   
 66  33  34  ar  
 67  33  44  1   
 68  34  35  ar  
 69  34  45  1   
 70  35  36  1   
 71  37  38  1   
 72  37  65  1   
 73  37  66  1   
 74  38  39  am  
 75  39  40  2   
 76  39  41  1   
 77  41  42  1   
 78  41  67  1   
 79  41  68  1   
@<TRIPOS>SUBSTRUCTURE
  1 LIG  18 GROUP 4 **** **** 0
@<TRIPOS>PROPERTY_DATA
index	|	ligand160
Name	|	DAV-CRI-f9b-10
ChemPlp	|	-104.76
MM-GBSA Nwat=0	|	-17.7443
STDEV0	|	4.6563
MM-GBSA Nwat=30	|	4.6216
STDEV30	|	14.1924
MM-GBSA Nwat=60	|	17.174
STDEV60	|	9.2911
ST.DEV < 10%	|	N
RMSD LIG < 2	|	
DIST < 5	|	
DIST < 3.5	|	N

# MOE 2019.01 (io_trps.svl 2018.10)

@<TRIPOS>MOLECULE
ligand520
68 71 1 0 0 
SMALL
NO_CHARGES


@<TRIPOS>ATOM
  1 N1       4.4920     9.2220    19.1030 N.1   1 LIG   0.0000 
  2 C2       5.0900     8.8670    20.0060 C.1   1 LIG   0.0000 
  3 C3       5.8870     8.3930    21.2100 C.ar  1 LIG   0.0000 
  4 C4       5.8000     9.0880    22.4120 C.ar  1 LIG   0.0000 
  5 C6       6.5320     8.6510    23.5100 C.ar  1 LIG   0.0000 
  6 C8       7.3420     7.5260    23.3950 C.ar  1 LIG   0.0000 
  7 C9       8.1420     7.0540    24.5990 C.3   1 LIG   0.0000 
  8 N12      9.4500     6.5550    24.1530 N.am  1 LIG   0.0000 
  9 C14      9.8500     5.2870    24.4840 C.2   1 LIG   0.0000 
 10 O15      9.1310     4.5840    25.1390 O.2   1 LIG   0.0000 
 11 N16     11.0970     4.8120    24.0590 N.am  1 LIG   0.0000 
 12 C17     11.9590     5.6920    23.2550 C.3   1 LIG   0.0000 
 13 C20     12.7880     4.8800    22.2730 C.3   1 LIG   0.0000 
 14 O23     13.3820     3.7520    22.9040 O.3   1 LIG   0.0000 
 15 C24     12.3780     2.8400    23.3280 C.3   1 LIG   0.0000 
 16 C25     13.0000     1.5640    23.8690 C.3   1 LIG   0.0000 
 17 C28     11.9940     0.4280    23.7710 C.ar  1 LIG   0.0000 
 18 C29     10.7540     0.5470    24.3890 C.ar  1 LIG   0.0000 
 19 C31      9.8420    -0.5000    24.2920 C.ar  1 LIG   0.0000 
 20 S32      8.2900    -0.3520    25.0640 S.o2  1 LIG   0.0000 
 21 O33      8.2380    -1.2260    26.2080 O.2   1 LIG   0.0000 
 22 O34      8.0940     1.0090    25.4920 O.2   1 LIG   0.0000 
 23 N35      7.0230    -0.7980    23.9270 N.am  1 LIG   0.0000 
 24 C36      7.2000    -2.2310    23.6340 C.3   1 LIG   0.0000 
 25 C39      6.2040    -2.7370    22.6010 C.3   1 LIG   0.0000 
 26 N42      6.0700    -1.8080    21.4680 N.am  1 LIG   0.0000 
 27 C43      5.8010    -2.3220    20.1940 C.2   1 LIG   0.0000 
 28 O44      5.6820    -3.5060    20.0390 O.2   1 LIG   0.0000 
 29 C45      5.6590    -1.3820    19.0090 C.3   1 LIG   0.0000 
 30 CL48     7.0320    -0.2500    18.9820 Cl    1 LIG   0.0000 
 31 C49      6.2190    -0.3510    21.6180 C.3   1 LIG   0.0000 
 32 C52      7.2280    -0.0060    22.7030 C.3   1 LIG   0.0000 
 33 C55     10.1550    -1.6580    23.5880 C.ar  1 LIG   0.0000 
 34 C57     11.3980    -1.7690    22.9730 C.ar  1 LIG   0.0000 
 35 C59     12.3150    -0.7270    23.0660 C.ar  1 LIG   0.0000 
 36 CL60    13.8990    -0.8910    22.2700 Cl    1 LIG   0.0000 
 37 C61     11.5140     3.4490    24.4220 C.3   1 LIG   0.0000 
 38 C64      7.4270     6.8290    22.1930 C.ar  1 LIG   0.0000 
 39 C66      6.6950     7.2670    21.0940 C.ar  1 LIG   0.0000 
 40 H4       5.2150     9.8960    22.4850 H     1 LIG   0.0000 
 41 H6       6.4780     9.1440    24.3790 H     1 LIG   0.0000 
 42 H64      8.0100     6.0200    22.1200 H     1 LIG   0.0000 
 43 H66      6.7500     6.7750    20.2250 H     1 LIG   0.0000 
 44 H29     10.5190     1.3760    24.8980 H     1 LIG   0.0000 
 45 H55      9.4930    -2.4050    23.5250 H     1 LIG   0.0000 
 46 H57     11.6330    -2.5970    22.4640 H     1 LIG   0.0000 
 47 H91      8.2730     7.8170    25.2310 H     1 LIG   0.0000 
 48 H92      7.6450     6.3190    25.0610 H     1 LIG   0.0000 
 49 H171    12.5710     6.1970    23.8630 H     1 LIG   0.0000 
 50 H172    11.3870     6.3360    22.7470 H     1 LIG   0.0000 
 51 H201    12.1970     4.5640    21.5310 H     1 LIG   0.0000 
 52 H202    13.5110     5.4610    21.8990 H     1 LIG   0.0000 
 53 H24     11.7970     2.6120    22.5470 H     1 LIG   0.0000 
 54 H251    13.8130     1.3360    23.3330 H     1 LIG   0.0000 
 55 H252    13.2590     1.6980    24.8260 H     1 LIG   0.0000 
 56 H361     7.0760    -2.7490    24.4810 H     1 LIG   0.0000 
 57 H362     8.1260    -2.3760    23.2860 H     1 LIG   0.0000 
 58 H391     6.5160    -3.6230    22.2580 H     1 LIG   0.0000 
 59 H392     5.3110    -2.8450    23.0380 H     1 LIG   0.0000 
 60 H451     5.6480    -1.9130    18.1620 H     1 LIG   0.0000 
 61 H452     4.8050    -0.8680    19.0920 H     1 LIG   0.0000 
 62 H491     5.3330     0.0440    21.8600 H     1 LIG   0.0000 
 63 H492     6.5300     0.0360    20.7490 H     1 LIG   0.0000 
 64 H521     8.1490    -0.1840    22.3550 H     1 LIG   0.0000 
 65 H522     7.1390     0.9640    22.9290 H     1 LIG   0.0000 
 66 H611    10.7020     2.8810    24.5520 H     1 LIG   0.0000 
 67 H612    12.0380     3.4820    25.2730 H     1 LIG   0.0000 
 68 H12     10.0490     7.1410    23.6070 H     1 LIG   0.0000 
@<TRIPOS>BOND
  1   1   2  3   
  2   2   3  1   
  3   3   4  ar  
  4   3  39  ar  
  5   4   5  ar  
  6   4  40  1   
  7   5   6  ar  
  8   5  41  1   
  9   6   7  1   
 10   6  38  ar  
 11   7   8  1   
 12   7  47  1   
 13   7  48  1   
 14   8   9  am  
 15   8  68  1   
 16   9  10  2   
 17   9  11  am  
 18  11  12  1   
 19  11  37  1   
 20  12  13  1   
 21  12  49  1   
 22  12  50  1   
 23  13  14  1   
 24  13  51  1   
 25  13  52  1   
 26  14  15  1   
 27  15  16  1   
 28  15  37  1   
 29  15  53  1   
 30  16  17  1   
 31  16  54  1   
 32  16  55  1   
 33  17  18  ar  
 34  17  35  ar  
 35  18  19  ar  
 36  18  44  1   
 37  19  20  1   
 38  19  33  ar  
 39  20  21  2   
 40  20  22  2   
 41  20  23  am  
 42  23  24  1   
 43  23  32  1   
 44  24  25  1   
 45  24  56  1   
 46  24  57  1   
 47  25  26  1   
 48  25  58  1   
 49  25  59  1   
 50  26  27  am  
 51  26  31  1   
 52  27  28  2   
 53  27  29  1   
 54  29  30  1   
 55  29  60  1   
 56  29  61  1   
 57  31  32  1   
 58  31  62  1   
 59  31  63  1   
 60  32  64  1   
 61  32  65  1   
 62  33  34  ar  
 63  33  45  1   
 64  34  35  ar  
 65  34  46  1   
 66  35  36  1   
 67  37  66  1   
 68  37  67  1   
 69  38  39  ar  
 70  38  42  1   
 71  39  43  1   
@<TRIPOS>SUBSTRUCTURE
  1 LIG  32 GROUP 4 **** **** 0
@<TRIPOS>PROPERTY_DATA
index	|	ligand520
Name	|	PED-UNI-b79-2
ChemPlp	|	-105.857
MM-GBSA Nwat=0	|	1.6187
STDEV0	|	3.9849
MM-GBSA Nwat=30	|	7.4237
STDEV30	|	12.8268
MM-GBSA Nwat=60	|	-27.8547
STDEV60	|	11.3259
ST.DEV < 10%	|	N
RMSD LIG < 2	|	
DIST < 5	|	
DIST < 3.5	|	N

# MOE 2019.01 (io_trps.svl 2018.10)

@<TRIPOS>MOLECULE
ligand168
76 79 1 0 0 
SMALL
NO_CHARGES


@<TRIPOS>ATOM
  1 C1       6.3230     0.9110    18.9880 C.3   1 LIG   0.0000 
  2 C5       7.4250     0.4090    19.9080 C.3   1 LIG   0.0000 
  3 N6       7.8560     1.4990    20.7950 N.3   1 LIG   0.0000 
  4 N9       6.9180    -0.7090    20.7160 N.3   1 LIG   0.0000 
  5 C11      7.5770    -1.9550    20.2980 C.3   1 LIG   0.0000 
  6 C12      6.5410    -3.0600    20.1740 C.3   1 LIG   0.0000 
  7 C15      5.7950    -3.2040    21.4900 C.2   1 LIG   0.0000 
  8 N16      5.8220    -2.1880    22.4080 N.am  1 LIG   0.0000 
  9 O19      5.1820    -4.2090    21.7260 O.2   1 LIG   0.0000 
 10 C20      8.6180    -2.3490    21.3330 C.2   1 LIG   0.0000 
 11 O21      8.5320    -3.4050    21.8970 O.2   1 LIG   0.0000 
 12 N22      9.6530    -1.5000    21.6210 N.am  1 LIG   0.0000 
 13 C24     10.6600    -1.8820    22.6230 C.3   1 LIG   0.0000 
 14 C25     12.0070    -1.2440    22.3170 C.3   1 LIG   0.0000 
 15 C28     11.9690     0.2520    22.5850 C.3   1 LIG   0.0000 
 16 C31     11.6370     0.5250    24.0440 C.3   1 LIG   0.0000 
 17 C32     11.5380     2.0330    24.2180 C.2   1 LIG   0.0000 
 18 N33     10.4960     2.7170    24.6170 N.2   1 LIG   0.0000 
 19 C34     10.6550     4.0820    24.6970 C.ar  1 LIG   0.0000 
 20 C35      9.8060     5.1220    25.0680 C.ar  1 LIG   0.0000 
 21 C37     10.2180     6.4530    25.0620 C.ar  1 LIG   0.0000 
 22 C38      9.2890     7.5830    25.4690 C.3   1 LIG   0.0000 
 23 C41      8.2460     7.7970    24.3850 C.ar  1 LIG   0.0000 
 24 C42      7.3590     8.8640    24.4900 C.ar  1 LIG   0.0000 
 25 C44      6.4060     9.0560    23.4940 C.ar  1 LIG   0.0000 
 26 C46      6.3490     8.1860    22.4110 C.ar  1 LIG   0.0000 
 27 S47      5.1560     8.4300    21.1680 S.o2  1 LIG   0.0000 
 28 N48      4.1730     7.1320    21.0960 N.am  1 LIG   0.0000 
 29 O51      4.3800     9.6040    21.4700 O.2   1 LIG   0.0000 
 30 O52      5.8140     8.6040    19.8990 O.2   1 LIG   0.0000 
 31 C53      7.2350     7.1190    22.3060 C.ar  1 LIG   0.0000 
 32 C55      8.1880     6.9280    23.3010 C.ar  1 LIG   0.0000 
 33 C57     11.5020     6.8220    24.6830 C.ar  1 LIG   0.0000 
 34 C59     12.3930     5.8310    24.3030 C.ar  1 LIG   0.0000 
 35 C61     11.9070     4.5340    24.3370 C.ar  1 LIG   0.0000 
 36 S62     12.7880     3.1470    23.9140 S.3   1 LIG   0.0000 
 37 C63     10.3140    -0.1010    24.4660 C.3   1 LIG   0.0000 
 38 N66     10.1360    -1.4640    23.9330 N.am  1 LIG   0.0000 
 39 C67      9.4440    -2.4120    24.6950 C.2   1 LIG   0.0000 
 40 O68      9.2940    -3.5260    24.2750 O.2   1 LIG   0.0000 
 41 C69      8.8820    -2.0300    26.0550 C.3   1 LIG   0.0000 
 42 CL72     8.6630    -3.4970    27.0400 Cl    1 LIG   0.0000 
 43 H35      8.8710     4.9060    25.3470 H     1 LIG   0.0000 
 44 H57     11.7780     7.7830    24.6840 H     1 LIG   0.0000 
 45 H59     13.3290     6.0390    24.0210 H     1 LIG   0.0000 
 46 H42      7.4060     9.4850    25.2720 H     1 LIG   0.0000 
 47 H44      5.7630     9.8200    23.5580 H     1 LIG   0.0000 
 48 H53      7.1880     6.4980    21.5240 H     1 LIG   0.0000 
 49 H55      8.8310     6.1650    23.2370 H     1 LIG   0.0000 
 50 H11      6.6680     1.6710    18.4390 H     1 LIG   0.0000 
 51 H12      6.0290     0.1690    18.3850 H     1 LIG   0.0000 
 52 H13      5.5460     1.2210    19.5370 H     1 LIG   0.0000 
 53 H5       8.2010     0.0990    19.3590 H     1 LIG   0.0000 
 54 H11      8.0230    -1.8150    19.4130 H     1 LIG   0.0000 
 55 H121     5.8940    -2.8300    19.4470 H     1 LIG   0.0000 
 56 H122     6.9980    -3.9220    19.9530 H     1 LIG   0.0000 
 57 H24     10.7630    -2.8760    22.6170 H     1 LIG   0.0000 
 58 H251    12.2320    -1.4000    21.3550 H     1 LIG   0.0000 
 59 H252    12.7070    -1.6630    22.8950 H     1 LIG   0.0000 
 60 H281    12.8630     0.6480    22.3720 H     1 LIG   0.0000 
 61 H282    11.2720     0.6730    22.0040 H     1 LIG   0.0000 
 62 H31     12.3710     0.1710    24.6240 H     1 LIG   0.0000 
 63 H381     9.8190     8.4220    25.5920 H     1 LIG   0.0000 
 64 H382     8.8340     7.3470    26.3280 H     1 LIG   0.0000 
 65 H631    10.2830    -0.1410    25.4650 H     1 LIG   0.0000 
 66 H632     9.5670     0.4740    24.1320 H     1 LIG   0.0000 
 67 H691     9.5180    -1.4110    26.5170 H     1 LIG   0.0000 
 68 H692     8.0000    -1.5740    25.9360 H     1 LIG   0.0000 
 69 H61      8.2010     2.2590    20.2450 H     1 LIG   0.0000 
 70 H62      7.0800     1.8090    21.3440 H     1 LIG   0.0000 
 71 H9       7.1120    -0.5370    21.6820 H     1 LIG   0.0000 
 72 H161     6.3320    -1.3500    22.2120 H     1 LIG   0.0000 
 73 H162     5.3310    -2.2830    23.2740 H     1 LIG   0.0000 
 74 H22      9.7250    -0.6200    21.1510 H     1 LIG   0.0000 
 75 H481     3.2400     7.4310    20.8940 H     1 LIG   0.0000 
 76 H482     4.4880     6.5140    20.3760 H     1 LIG   0.0000 
@<TRIPOS>BOND
  1   1   2  1   
  2   1  50  1   
  3   1  51  1   
  4   1  52  1   
  5   2   3  1   
  6   2   4  1   
  7   2  53  1   
  8   3  69  1   
  9   3  70  1   
 10   4   5  1   
 11   4  71  1   
 12   5   6  1   
 13   5  10  1   
 14   5  54  1   
 15   6   7  1   
 16   6  55  1   
 17   6  56  1   
 18   7   8  am  
 19   7   9  2   
 20   8  72  1   
 21   8  73  1   
 22  10  11  2   
 23  10  12  am  
 24  12  13  1   
 25  12  74  1   
 26  13  14  1   
 27  13  38  1   
 28  13  57  1   
 29  14  15  1   
 30  14  58  1   
 31  14  59  1   
 32  15  16  1   
 33  15  60  1   
 34  15  61  1   
 35  16  17  1   
 36  16  37  1   
 37  16  62  1   
 38  17  18  2   
 39  17  36  1   
 40  18  19  1   
 41  19  20  ar  
 42  19  35  ar  
 43  20  21  ar  
 44  20  43  1   
 45  21  22  1   
 46  21  33  ar  
 47  22  23  1   
 48  22  63  1   
 49  22  64  1   
 50  23  24  ar  
 51  23  32  ar  
 52  24  25  ar  
 53  24  46  1   
 54  25  26  ar  
 55  25  47  1   
 56  26  27  1   
 57  26  31  ar  
 58  27  28  am  
 59  27  29  2   
 60  27  30  2   
 61  28  75  1   
 62  28  76  1   
 63  31  32  ar  
 64  31  48  1   
 65  32  49  1   
 66  33  34  ar  
 67  33  44  1   
 68  34  35  ar  
 69  34  45  1   
 70  35  36  1   
 71  37  38  1   
 72  37  65  1   
 73  37  66  1   
 74  38  39  am  
 75  39  40  2   
 76  39  41  1   
 77  41  42  1   
 78  41  67  1   
 79  41  68  1   
@<TRIPOS>SUBSTRUCTURE
  1 LIG   3 GROUP 4 **** **** 0
@<TRIPOS>PROPERTY_DATA
index	|	ligand168
Name	|	DAV-CRI-f9b-9
ChemPlp	|	-105.249
MM-GBSA Nwat=0	|	-11.0788
STDEV0	|	6.2571
MM-GBSA Nwat=30	|	9.1531
STDEV30	|	10.8727
MM-GBSA Nwat=60	|	-9.2447
STDEV60	|	11.9849
ST.DEV < 10%	|	N
RMSD LIG < 2	|	
DIST < 5	|	
DIST < 3.5	|	N

# MOE 2019.01 (io_trps.svl 2018.10)

@<TRIPOS>MOLECULE
ligand431
52 54 1 0 0 
SMALL
NO_CHARGES


@<TRIPOS>ATOM
  1 C1      13.7890    -1.7890    22.2790 C.3   1 LIG   0.0000 
  2 C5      12.9830    -0.5520    22.6420 C.ar  1 LIG   0.0000 
  3 C6      13.6000     0.4960    23.3180 C.ar  1 LIG   0.0000 
  4 C8      12.8620     1.6270    23.6500 C.ar  1 LIG   0.0000 
  5 C10     11.5160     1.7040    23.3050 C.ar  1 LIG   0.0000 
  6 N11     10.7730     2.8430    23.6390 N.pl3 1 LIG   0.0000 
  7 C13     11.3760     3.8980    24.4660 C.3   1 LIG   0.0000 
  8 C16     12.2250     4.8060    23.5910 C.ar  1 LIG   0.0000 
  9 C17     12.7030     4.3360    22.3720 C.ar  1 LIG   0.0000 
 10 C19     13.4800     5.1700    21.5740 C.ar  1 LIG   0.0000 
 11 C21     13.7720     6.4630    21.9960 C.ar  1 LIG   0.0000 
 12 C23     13.2890     6.9210    23.2150 C.ar  1 LIG   0.0000 
 13 C25     12.5110     6.0970    24.0230 C.ar  1 LIG   0.0000 
 14 C27     10.9090     0.6510    22.6290 C.ar  1 LIG   0.0000 
 15 S28      9.2250     0.7480    22.2000 S.o2  1 LIG   0.0000 
 16 O29      8.6040     1.8210    22.9320 O.2   1 LIG   0.0000 
 17 O30      9.1040     0.9960    20.7870 O.2   1 LIG   0.0000 
 18 N31      8.4300    -0.7710    22.5990 N.am  1 LIG   0.0000 
 19 C32      9.0040    -1.7980    21.7130 C.3   1 LIG   0.0000 
 20 C35      8.3510    -3.1590    21.9060 C.3   1 LIG   0.0000 
 21 N38      6.8850    -3.0560    21.9920 N.am  1 LIG   0.0000 
 22 C39      6.1000    -4.1050    21.4990 C.2   1 LIG   0.0000 
 23 O40      4.9030    -4.0380    21.5610 O.2   1 LIG   0.0000 
 24 C41      6.7620    -5.3270    20.8860 C.3   1 LIG   0.0000 
 25 CL44     7.0740    -6.5340    22.1570 Cl    1 LIG   0.0000 
 26 C45      6.2070    -1.8840    22.5700 C.3   1 LIG   0.0000 
 27 C48      6.9950    -0.6070    22.3160 C.3   1 LIG   0.0000 
 28 C51     11.6390    -0.4850    22.2930 C.ar  1 LIG   0.0000 
 29 H6      14.5680     0.4360    23.5640 H     1 LIG   0.0000 
 30 H8      13.2980     2.3840    24.1350 H     1 LIG   0.0000 
 31 H51     11.2020    -1.2420    21.8070 H     1 LIG   0.0000 
 32 H17     12.4900     3.4070    22.0710 H     1 LIG   0.0000 
 33 H19     13.8280     4.8400    20.6960 H     1 LIG   0.0000 
 34 H21     14.3300     7.0620    21.4220 H     1 LIG   0.0000 
 35 H23     13.5010     7.8510    23.5150 H     1 LIG   0.0000 
 36 H25     12.1640     6.4270    24.9000 H     1 LIG   0.0000 
 37 H11     14.7300    -1.6790    22.5990 H     1 LIG   0.0000 
 38 H12     13.3810    -2.5920    22.7140 H     1 LIG   0.0000 
 39 H13     13.7860    -1.9100    21.2870 H     1 LIG   0.0000 
 40 H131    11.9520     3.4810    25.1710 H     1 LIG   0.0000 
 41 H132    10.6530     4.4350    24.9010 H     1 LIG   0.0000 
 42 H321     9.9810    -1.8800    21.9080 H     1 LIG   0.0000 
 43 H322     8.8760    -1.5110    20.7640 H     1 LIG   0.0000 
 44 H351     8.5900    -3.7440    21.1310 H     1 LIG   0.0000 
 45 H352     8.6970    -3.5670    22.7510 H     1 LIG   0.0000 
 46 H411     6.1580    -5.7220    20.1930 H     1 LIG   0.0000 
 47 H412     7.6270    -5.0600    20.4600 H     1 LIG   0.0000 
 48 H451     6.1120    -2.0170    23.5570 H     1 LIG   0.0000 
 49 H452     5.3010    -1.7960    22.1570 H     1 LIG   0.0000 
 50 H481     6.8840    -0.3470    21.3560 H     1 LIG   0.0000 
 51 H482     6.6310     0.1170    22.9020 H     1 LIG   0.0000 
 52 H11      9.8320     2.9380    23.3150 H     1 LIG   0.0000 
@<TRIPOS>BOND
  1   1   2  1   
  2   1  37  1   
  3   1  38  1   
  4   1  39  1   
  5   2   3  ar  
  6   2  28  ar  
  7   3   4  ar  
  8   3  29  1   
  9   4   5  ar  
 10   4  30  1   
 11   5   6  1   
 12   5  14  ar  
 13   6   7  1   
 14   6  52  1   
 15   7   8  1   
 16   7  40  1   
 17   7  41  1   
 18   8   9  ar  
 19   8  13  ar  
 20   9  10  ar  
 21   9  32  1   
 22  10  11  ar  
 23  10  33  1   
 24  11  12  ar  
 25  11  34  1   
 26  12  13  ar  
 27  12  35  1   
 28  13  36  1   
 29  14  15  1   
 30  14  28  ar  
 31  15  16  2   
 32  15  17  2   
 33  15  18  am  
 34  18  19  1   
 35  18  27  1   
 36  19  20  1   
 37  19  42  1   
 38  19  43  1   
 39  20  21  1   
 40  20  44  1   
 41  20  45  1   
 42  21  22  am  
 43  21  26  1   
 44  22  23  2   
 45  22  24  1   
 46  24  25  1   
 47  24  46  1   
 48  24  47  1   
 49  26  27  1   
 50  26  48  1   
 51  26  49  1   
 52  27  50  1   
 53  27  51  1   
 54  28  31  1   
@<TRIPOS>SUBSTRUCTURE
  1 LIG  14 GROUP 4 **** **** 0
@<TRIPOS>PROPERTY_DATA
index	|	ligand431
Name	|	NAU-LAT-f72-5
ChemPlp	|	-94.3737
MM-GBSA Nwat=0	|	23.7129
STDEV0	|	6.2578
MM-GBSA Nwat=30	|	10.0214
STDEV30	|	10.9847
MM-GBSA Nwat=60	|	-16.1378
STDEV60	|	10.9526
ST.DEV < 10%	|	N
RMSD LIG < 2	|	
DIST < 5	|	
DIST < 3.5	|	N

# MOE 2019.01 (io_trps.svl 2018.10)

@<TRIPOS>MOLECULE
ligand230
57 59 1 0 0 
SMALL
NO_CHARGES


@<TRIPOS>ATOM
  1 C1       6.3000    -5.8890    21.7410 C.2   1 LIG   0.0000 
  2 H2       6.5500    -6.6240    22.3720 H     1 LIG   0.0000 
  3 H3       5.9500    -6.1090    20.8300 H     1 LIG   0.0000 
  4 C4       6.4320    -4.6480    22.1040 C.2   1 LIG   0.0000 
  5 H5       6.7820    -4.4280    23.0150 H     1 LIG   0.0000 
  6 C6       6.0530    -3.5310    21.1460 C.2   1 LIG   0.0000 
  7 O7       5.5880    -3.7940    20.0710 O.2   1 LIG   0.0000 
  8 N8       6.2460    -2.1940    21.5160 N.am  1 LIG   0.0000 
  9 C9       6.8180    -1.8940    22.8390 C.3   1 LIG   0.0000 
 10 H10      7.3910    -2.6620    23.1260 H     1 LIG   0.0000 
 11 H11      6.0720    -1.7730    23.4940 H     1 LIG   0.0000 
 12 C12      7.6640    -0.6300    22.8170 C.3   1 LIG   0.0000 
 13 H13      7.8210    -0.3320    23.7590 H     1 LIG   0.0000 
 14 H14      8.5410    -0.8370    22.3830 H     1 LIG   0.0000 
 15 N15      7.0160     0.4650    22.0760 N.am  1 LIG   0.0000 
 16 S16      8.1450     1.8150    22.0710 S.o2  1 LIG   0.0000 
 17 O17      8.8260     1.8660    20.8040 O.2   1 LIG   0.0000 
 18 O18      9.1080     1.6390    23.1270 O.2   1 LIG   0.0000 
 19 C19      7.2740     3.3000    22.3220 C.ar  1 LIG   0.0000 
 20 C20      5.9280     3.3840    21.9790 C.ar  1 LIG   0.0000 
 21 F21      5.3190     2.3220    21.4600 F     1 LIG   0.0000 
 22 C22      5.2150     4.5630    22.1720 C.ar  1 LIG   0.0000 
 23 H23      4.2480     4.6130    21.9230 H     1 LIG   0.0000 
 24 C24      5.8570     5.6720    22.7150 C.ar  1 LIG   0.0000 
 25 H25      5.3510     6.5230    22.8560 H     1 LIG   0.0000 
 26 C26      7.2020     5.5970    23.0610 C.ar  1 LIG   0.0000 
 27 H27      7.6630     6.3940    23.4510 H     1 LIG   0.0000 
 28 C28      7.9070     4.4140    22.8640 C.ar  1 LIG   0.0000 
 29 O29      9.2120     4.3410    23.2000 O.3   1 LIG   0.0000 
 30 C30      9.8020     5.3670    23.9850 C.3   1 LIG   0.0000 
 31 H31      9.2300     5.5430    24.7860 H     1 LIG   0.0000 
 32 H32      9.8780     6.2020    23.4400 H     1 LIG   0.0000 
 33 C33     11.1850     4.9280    24.4370 C.3   1 LIG   0.0000 
 34 H34     11.1150     4.0620    24.9320 H     1 LIG   0.0000 
 35 H35     11.5760     5.6240    25.0380 H     1 LIG   0.0000 
 36 C36     12.0810     4.7460    23.2220 C.3   1 LIG   0.0000 
 37 H37     12.1830     5.6220    22.7500 H     1 LIG   0.0000 
 38 H38     12.9790     4.4200    23.5160 H     1 LIG   0.0000 
 39 N39     11.4770     3.7640    22.3100 N.pl3 1 LIG   0.0000 
 40 H40     10.8440     4.0670    21.5970 H     1 LIG   0.0000 
 41 C41     11.7870     2.4060    22.4400 C.ar  1 LIG   0.0000 
 42 C42     12.7400     2.0380    23.3840 C.ar  1 LIG   0.0000 
 43 H43     13.1890     2.7290    23.9500 H     1 LIG   0.0000 
 44 C44     13.0600     0.6910    23.5250 C.ar  1 LIG   0.0000 
 45 H45     13.7430     0.4080    24.1980 H     1 LIG   0.0000 
 46 C46     12.4300    -0.2630    22.7330 C.ar  1 LIG   0.0000 
 47 C47     12.7870    -1.7310    22.8950 C.1   1 LIG   0.0000 
 48 N48     13.0540    -2.8330    23.0170 N.1   1 LIG   0.0000 
 49 C49     11.4860     0.1710    21.8080 C.ar  1 LIG   0.0000 
 50 H50     11.0210    -0.4980    21.2270 H     1 LIG   0.0000 
 51 N51     11.1900     1.4720    21.6830 N.ar  1 LIG   0.0000 
 52 C52      6.7980     0.0640    20.6760 C.3   1 LIG   0.0000 
 53 H53      7.6810    -0.1640    20.2660 H     1 LIG   0.0000 
 54 H54      6.3900     0.8320    20.1820 H     1 LIG   0.0000 
 55 C55      5.8760    -1.1400    20.5580 C.3   1 LIG   0.0000 
 56 H56      4.9370    -0.8510    20.7390 H     1 LIG   0.0000 
 57 H57      5.9390    -1.5080    19.6300 H     1 LIG   0.0000 
@<TRIPOS>BOND
  1   1   2  1   
  2   1   3  1   
  3   1   4  2   
  4   4   5  1   
  5   4   6  1   
  6   6   7  2   
  7   6   8  am  
  8   8   9  1   
  9   8  55  1   
 10   9  10  1   
 11   9  11  1   
 12   9  12  1   
 13  12  13  1   
 14  12  14  1   
 15  12  15  1   
 16  15  16  am  
 17  15  52  1   
 18  16  17  2   
 19  16  18  2   
 20  16  19  1   
 21  19  20  ar  
 22  19  28  ar  
 23  20  21  1   
 24  20  22  ar  
 25  22  23  1   
 26  22  24  ar  
 27  24  25  1   
 28  24  26  ar  
 29  26  27  1   
 30  26  28  ar  
 31  28  29  1   
 32  29  30  1   
 33  30  31  1   
 34  30  32  1   
 35  30  33  1   
 36  33  34  1   
 37  33  35  1   
 38  33  36  1   
 39  36  37  1   
 40  36  38  1   
 41  36  39  1   
 42  39  40  1   
 43  39  41  1   
 44  41  42  ar  
 45  41  51  ar  
 46  42  43  1   
 47  42  44  ar  
 48  44  45  1   
 49  44  46  ar  
 50  46  47  1   
 51  46  49  ar  
 52  47  48  3   
 53  49  50  1   
 54  49  51  ar  
 55  52  53  1   
 56  52  54  1   
 57  52  55  1   
 58  55  56  1   
 59  55  57  1   
@<TRIPOS>SUBSTRUCTURE
  1 LIG  16 GROUP 4 **** **** 0
@<TRIPOS>PROPERTY_DATA
index	|	ligand230
Name	|	JAN-GHE-bf4-1
ChemPlp	|	-94.8731
MM-GBSA Nwat=0	|	20.9126
STDEV0	|	6.0198
MM-GBSA Nwat=30	|	10.1051
STDEV30	|	11.1897
MM-GBSA Nwat=60	|	-25.9812
STDEV60	|	11.7002
ST.DEV < 10%	|	N
RMSD LIG < 2	|	
DIST < 5	|	
DIST < 3.5	|	N

# MOE 2019.01 (io_trps.svl 2018.10)

@<TRIPOS>MOLECULE
ligand354
51 53 1 0 0 
SMALL
NO_CHARGES


@<TRIPOS>ATOM
  1 C1      12.0440     1.1040    22.5990 C.3   1 LIG   0.0000 
  2 O5      10.9620     0.3150    22.1270 O.3   1 LIG   0.0000 
  3 C6       9.9250     0.8910    21.5700 C.2   1 LIG   0.0000 
  4 O7       9.9220     2.0780    21.3940 O.2   1 LIG   0.0000 
  5 C8       8.7820     0.0950    21.1670 C.ar  1 LIG   0.0000 
  6 C9       7.7070     0.7010    20.5270 C.ar  1 LIG   0.0000 
  7 C11      6.6200    -0.0780    20.1460 C.ar  1 LIG   0.0000 
  8 C13      6.5970    -1.4460    20.3970 C.ar  1 LIG   0.0000 
  9 C15      7.6830    -2.0310    21.0390 C.ar  1 LIG   0.0000 
 10 N16      7.6700    -3.4080    21.2960 N.am  1 LIG   0.0000 
 11 S18      6.3590    -4.2960    20.9110 S.o2  1 LIG   0.0000 
 12 O19      5.2010    -3.7550    21.5740 O.2   1 LIG   0.0000 
 13 O20      6.1570    -4.2620    19.4860 O.2   1 LIG   0.0000 
 14 C21      6.6120    -6.0080    21.4430 C.3   1 LIG   0.0000 
 15 C24      6.8720    -6.0400    22.9410 C.2   1 LIG   0.0000 
 16 O25      6.5000    -6.9750    23.5940 O.2   1 LIG   0.0000 
 17 N26      7.5300    -5.0010    23.5440 N.am  1 LIG   0.0000 
 18 C28      7.7680    -5.0300    24.9230 C.ar  1 LIG   0.0000 
 19 C29      9.0430    -4.7650    25.4120 C.ar  1 LIG   0.0000 
 20 C31      9.2580    -4.8000    26.7860 C.ar  1 LIG   0.0000 
 21 C33      8.2210    -5.0930    27.6650 C.ar  1 LIG   0.0000 
 22 C35      6.9540    -5.3540    27.1540 C.ar  1 LIG   0.0000 
 23 N36      5.9090    -5.6500    28.0340 N.am  1 LIG   0.0000 
 24 C37      4.5600    -6.0440    27.6280 C.3   1 LIG   0.0000 
 25 C40      4.0620    -6.8100    28.8360 C.3   1 LIG   0.0000 
 26 C43      4.6480    -6.0040    29.9770 C.3   1 LIG   0.0000 
 27 C46      6.0020    -5.6150    29.4220 C.2   1 LIG   0.0000 
 28 O47      6.9960    -5.3320    30.0700 O.2   1 LIG   0.0000 
 29 C48      6.7160    -5.3260    25.7830 C.ar  1 LIG   0.0000 
 30 C50      8.7800    -1.2710    21.4290 C.ar  1 LIG   0.0000 
 31 H9       7.7150     1.6840    20.3430 H     1 LIG   0.0000 
 32 H11      5.8440     0.3510    19.6850 H     1 LIG   0.0000 
 33 H13      5.8120    -2.0000    20.1200 H     1 LIG   0.0000 
 34 H50      9.5570    -1.7010    21.8900 H     1 LIG   0.0000 
 35 H29      9.7930    -4.5530    24.7860 H     1 LIG   0.0000 
 36 H31     10.1710    -4.6110    27.1470 H     1 LIG   0.0000 
 37 H33      8.3830    -5.1150    28.6510 H     1 LIG   0.0000 
 38 H48      5.8020    -5.5140    25.4220 H     1 LIG   0.0000 
 39 H11     12.7440     0.5080    22.9920 H     1 LIG   0.0000 
 40 H12     12.4350     1.6220    21.8380 H     1 LIG   0.0000 
 41 H13     11.7150     1.7380    23.2990 H     1 LIG   0.0000 
 42 H211     7.3990    -6.3940    20.9610 H     1 LIG   0.0000 
 43 H212     5.7960    -6.5460    21.2350 H     1 LIG   0.0000 
 44 H371     4.5830    -6.6270    26.8160 H     1 LIG   0.0000 
 45 H372     3.9880    -5.2440    27.4480 H     1 LIG   0.0000 
 46 H401     4.4070    -7.7490    28.8390 H     1 LIG   0.0000 
 47 H402     3.0630    -6.8220    28.8730 H     1 LIG   0.0000 
 48 H431     4.0910    -5.1980    30.1760 H     1 LIG   0.0000 
 49 H432     4.7400    -6.5590    30.8040 H     1 LIG   0.0000 
 50 H16      8.4650    -3.8460    21.7160 H     1 LIG   0.0000 
 51 H26      7.8390    -4.2210    23.0000 H     1 LIG   0.0000 
@<TRIPOS>BOND
  1   1   2  1   
  2   1  39  1   
  3   1  40  1   
  4   1  41  1   
  5   2   3  1   
  6   3   4  2   
  7   3   5  1   
  8   5   6  ar  
  9   5  30  ar  
 10   6   7  ar  
 11   6  31  1   
 12   7   8  ar  
 13   7  32  1   
 14   8   9  ar  
 15   8  33  1   
 16   9  10  1   
 17   9  30  ar  
 18  10  11  am  
 19  10  50  1   
 20  11  12  2   
 21  11  13  2   
 22  11  14  1   
 23  14  15  1   
 24  14  42  1   
 25  14  43  1   
 26  15  16  2   
 27  15  17  am  
 28  17  18  1   
 29  17  51  1   
 30  18  19  ar  
 31  18  29  ar  
 32  19  20  ar  
 33  19  35  1   
 34  20  21  ar  
 35  20  36  1   
 36  21  22  ar  
 37  21  37  1   
 38  22  23  1   
 39  22  29  ar  
 40  23  24  1   
 41  23  27  am  
 42  24  25  1   
 43  24  44  1   
 44  24  45  1   
 45  25  26  1   
 46  25  46  1   
 47  25  47  1   
 48  26  27  1   
 49  26  48  1   
 50  26  49  1   
 51  27  28  2   
 52  29  38  1   
 53  30  34  1   
@<TRIPOS>SUBSTRUCTURE
  1 LIG  17 GROUP 4 **** **** 0
@<TRIPOS>PROPERTY_DATA
index	|	ligand354
Name	|	MAK-UNK-915-1
ChemPlp	|	-91.8141
MM-GBSA Nwat=0	|	69.2916
STDEV0	|	7.4284
MM-GBSA Nwat=30	|	11.8502
STDEV30	|	15.4175
MM-GBSA Nwat=60	|	-28.5505
STDEV60	|	14.9439
ST.DEV < 10%	|	N
RMSD LIG < 2	|	
DIST < 5	|	
DIST < 3.5	|	N

# MOE 2019.01 (io_trps.svl 2018.10)

@<TRIPOS>MOLECULE
ligand311
72 77 1 0 0 
SMALL
USER_CHARGES


@<TRIPOS>ATOM
  1 O1       8.9770     7.7770    28.0170 O.2   1 LIG   0.0000 
  2 C2       8.8990     6.6480    27.6200 C.2   1 LIG   0.0000 
  3 C3       8.9140     5.4920    28.6070 C.3   1 LIG   0.0000 
  4 CL6      7.4240     4.5360    28.4250 Cl    1 LIG   0.0000 
  5 N7       8.7940     6.3940    26.2470 N.am  1 LIG   0.0000 
  6 C8       8.7820     7.5340    25.3160 C.3   1 LIG   0.0000 
  7 C11      8.1150     7.0930    24.0220 C.ar  1 LIG   0.0000 
  8 C12      7.3430     8.0040    23.3090 C.ar  1 LIG   0.0000 
  9 C14      6.7410     7.5940    22.1240 C.ar  1 LIG   0.0000 
 10 C16      6.8950     6.2990    21.6410 C.ar  1 LIG   0.0000 
 11 C18      7.6640     5.3960    22.3660 C.ar  1 LIG   0.0000 
 12 C20      8.2680     5.7930    23.5540 C.ar  1 LIG   0.0000 
 13 C21      9.0900     4.7820    24.3360 C.3   1 LIG   0.0000 
 14 N22      8.7300     3.3890    24.0240 N.4   1 LIG   1.0000 
 15 C25      9.5260     2.4780    24.8610 C.3   1 LIG   0.0000 
 16 C28      9.2650     1.0370    24.4330 C.2   1 LIG   0.0000 
 17 C29      9.3230    -0.0850    25.2940 C.2   1 LIG   0.0000 
 18 C31      9.0360    -1.1750    24.5260 C.2   1 LIG   0.0000 
 19 C32      8.9930    -2.5430    25.0060 C.ar  1 LIG   0.0000 
 20 C33      9.3890    -3.5840    24.1730 C.ar  1 LIG   0.0000 
 21 C35      9.3480    -4.8960    24.6330 C.ar  1 LIG   0.0000 
 22 C37      8.9100    -5.1670    25.9260 C.ar  1 LIG   0.0000 
 23 C39      8.5130    -4.1260    26.7580 C.ar  1 LIG   0.0000 
 24 C41      8.5540    -2.8140    26.2980 C.ar  1 LIG   0.0000 
 25 F42      8.1750    -1.8180    27.0950 F     1 LIG   0.0000 
 26 N43      8.7970    -0.7450    23.2500 N.pl3 1 LIG   0.0000 
 27 S44      8.3930    -1.7450    21.9480 S.o2  1 LIG   0.0000 
 28 O45      8.1240    -0.9370    20.7870 O.2   1 LIG   0.0000 
 29 O46      9.4900    -2.6350    21.6680 O.2   1 LIG   0.0000 
 30 C47      6.9790    -2.6760    22.3480 C.ar  1 LIG   0.0000 
 31 C48      6.3550    -2.4890    23.5760 C.ar  1 LIG   0.0000 
 32 C50      5.2250    -3.2330    23.8950 C.ar  1 LIG   0.0000 
 33 C52      4.7410    -4.1540    22.9700 C.ar  1 LIG   0.0000 
 34 N54      5.3560    -4.3200    21.7900 N.ar  1 LIG   0.0000 
 35 C55      6.4480    -3.6110    21.4650 C.ar  1 LIG   0.0000 
 36 C57      8.9360     0.6110    23.1710 C.2   1 LIG   0.0000 
 37 C59     10.5810     4.9340    24.0800 C.ar  1 LIG   0.0000 
 38 C60     11.3340     5.7890    24.8780 C.ar  1 LIG   0.0000 
 39 C62     12.6980     5.9260    24.6390 C.ar  1 LIG   0.0000 
 40 C64     13.2980     5.2100    23.6090 C.ar  1 LIG   0.0000 
 41 C66     12.5360     4.3580    22.8180 C.ar  1 LIG   0.0000 
 42 C68     11.1720     4.2130    23.0470 C.ar  1 LIG   0.0000 
 43 C70      8.6990     4.9980    25.7880 C.3   1 LIG   0.0000 
 44 H12      7.2220     8.9390    23.6430 H     1 LIG   0.0000 
 45 H14      6.1840     8.2460    21.6080 H     1 LIG   0.0000 
 46 H16      6.4590     6.0210    20.7850 H     1 LIG   0.0000 
 47 H18      7.7830     4.4610    22.0330 H     1 LIG   0.0000 
 48 H29      9.5330    -0.0800    26.2710 H     1 LIG   0.0000 
 49 H57      8.8210     1.1800    22.3570 H     1 LIG   0.0000 
 50 H33      9.7030    -3.3890    23.2440 H     1 LIG   0.0000 
 51 H35      9.6340    -5.6450    24.0350 H     1 LIG   0.0000 
 52 H37      8.8800    -6.1100    26.2560 H     1 LIG   0.0000 
 53 H39      8.1990    -4.3210    27.6870 H     1 LIG   0.0000 
 54 H48      6.7180    -1.8220    24.2280 H     1 LIG   0.0000 
 55 H50      4.7660    -3.1080    24.7750 H     1 LIG   0.0000 
 56 H52      3.9290    -4.6950    23.1870 H     1 LIG   0.0000 
 57 H55      6.8850    -3.7570    20.5780 H     1 LIG   0.0000 
 58 H60     10.8980     6.3010    25.6180 H     1 LIG   0.0000 
 59 H62     13.2460     6.5390    25.2070 H     1 LIG   0.0000 
 60 H64     14.2790     5.3080    23.4370 H     1 LIG   0.0000 
 61 H66     12.9720     3.8460    22.0790 H     1 LIG   0.0000 
 62 H68     10.6240     3.6000    22.4770 H     1 LIG   0.0000 
 63 H31      9.7080     4.9110    28.4280 H     1 LIG   0.0000 
 64 H32      8.9680     5.8510    29.5390 H     1 LIG   0.0000 
 65 H81      9.7190     7.8280    25.1300 H     1 LIG   0.0000 
 66 H82      8.2680     8.2930    25.7190 H     1 LIG   0.0000 
 67 H221     8.9170     3.2040    23.0600 H     1 LIG   0.0000 
 68 H222     7.7580     3.2460    24.2090 H     1 LIG   0.0000 
 69 H251     9.2660     2.5940    25.8190 H     1 LIG   0.0000 
 70 H252    10.4970     2.6880    24.7510 H     1 LIG   0.0000 
 71 H701     7.7530     4.6950    25.9050 H     1 LIG   0.0000 
 72 H702     9.3010     4.4400    26.3600 H     1 LIG   0.0000 
@<TRIPOS>BOND
  1   1   2  2   
  2   2   3  1   
  3   2   5  am  
  4   3   4  1   
  5   3  63  1   
  6   3  64  1   
  7   5   6  1   
  8   5  43  1   
  9   6   7  1   
 10   6  65  1   
 11   6  66  1   
 12   7   8  ar  
 13   7  12  ar  
 14   8   9  ar  
 15   8  44  1   
 16   9  10  ar  
 17   9  45  1   
 18  10  11  ar  
 19  10  46  1   
 20  11  12  ar  
 21  11  47  1   
 22  12  13  1   
 23  13  14  1   
 24  13  37  1   
 25  13  43  1   
 26  14  15  1   
 27  14  67  1   
 28  14  68  1   
 29  15  16  1   
 30  15  69  1   
 31  15  70  1   
 32  16  17  1   
 33  16  36  2   
 34  17  18  2   
 35  17  48  1   
 36  18  19  1   
 37  18  26  1   
 38  19  20  ar  
 39  19  24  ar  
 40  20  21  ar  
 41  20  50  1   
 42  21  22  ar  
 43  21  51  1   
 44  22  23  ar  
 45  22  52  1   
 46  23  24  ar  
 47  23  53  1   
 48  24  25  1   
 49  26  27  1   
 50  26  36  1   
 51  27  28  2   
 52  27  29  2   
 53  27  30  1   
 54  30  31  ar  
 55  30  35  ar  
 56  31  32  ar  
 57  31  54  1   
 58  32  33  ar  
 59  32  55  1   
 60  33  34  ar  
 61  33  56  1   
 62  34  35  ar  
 63  35  57  1   
 64  36  49  1   
 65  37  38  ar  
 66  37  42  ar  
 67  38  39  ar  
 68  38  58  1   
 69  39  40  ar  
 70  39  59  1   
 71  40  41  ar  
 72  40  60  1   
 73  41  42  ar  
 74  41  61  1   
 75  42  62  1   
 76  43  71  1   
 77  43  72  1   
@<TRIPOS>SUBSTRUCTURE
  1 LIG  16 GROUP 4 **** **** 0
@<TRIPOS>PROPERTY_DATA
index	|	ligand311
Name	|	MAK-UNK-702-6
ChemPlp	|	-91.3105
MM-GBSA Nwat=0	|	53.2053
STDEV0	|	6.0043
MM-GBSA Nwat=30	|	12.949
STDEV30	|	10.7878
MM-GBSA Nwat=60	|	7.291
STDEV60	|	10.6096
ST.DEV < 10%	|	N
RMSD LIG < 2	|	
DIST < 5	|	
DIST < 3.5	|	N

# MOE 2019.01 (io_trps.svl 2018.10)

@<TRIPOS>MOLECULE
ligand209
63 66 1 0 0 
SMALL
USER_CHARGES


@<TRIPOS>ATOM
  1 N1      12.5590     8.0410    25.4660 N.am  1 LIG   0.0000 
  2 S4      11.4060     6.9300    25.7710 S.o2  1 LIG   0.0000 
  3 O5      10.1350     7.4140    25.2950 O.2   1 LIG   0.0000 
  4 O6      11.3290     6.6940    27.1890 O.2   1 LIG   0.0000 
  5 C7      11.8020     5.4450    24.9560 C.ar  1 LIG   0.0000 
  6 C8      11.1980     4.2410    25.3080 C.ar  1 LIG   0.0000 
  7 C10     11.5100     3.0560    24.6520 C.ar  1 LIG   0.0000 
  8 C11     12.4400     3.0710    23.6130 C.ar  1 LIG   0.0000 
  9 C12     13.0500     4.2760    23.2690 C.ar  1 LIG   0.0000 
 10 C14     12.7400     5.4610    23.9280 C.ar  1 LIG   0.0000 
 11 O15     13.3510     6.6070    23.5600 O.3   1 LIG   0.0000 
 12 C17     12.7830     1.7940    22.8540 C.3   1 LIG   0.0000 
 13 C20     12.4960     0.5420    23.6680 C.3   1 LIG   0.0000 
 14 I21     12.7030    -1.1420    22.3470 I     1 LIG   0.0000 
 15 C22     11.0750     0.6400    24.1990 C.3   1 LIG   0.0000 
 16 C23     10.7410    -0.6160    24.9880 C.3   1 LIG   0.0000 
 17 C26      9.2450    -0.8770    24.9160 C.3   1 LIG   0.0000 
 18 C29      8.9980    -2.2310    24.2710 C.3   1 LIG   0.0000 
 19 C30      8.7830    -3.2760    25.3540 C.2   1 LIG   0.0000 
 20 C31      9.6280    -4.2890    25.6870 C.2   1 LIG   0.0000 
 21 C33      9.1800    -5.1280    26.7410 C.2   1 LIG   0.0000 
 22 C35      7.9700    -4.7730    27.2500 C.2   1 LIG   0.0000 
 23 BR36     6.9950    -5.6490    28.7080 Br    1 LIG   0.0000 
 24 S37      7.4400    -3.4070    26.3910 S.3   1 LIG   0.0000 
 25 N38      7.8040    -2.1570    23.4180 N.4   1 LIG   1.0000 
 26 C39      8.0820    -1.1560    22.3740 C.3   1 LIG   0.0000 
 27 C42      6.9270    -1.0230    21.3930 C.3   1 LIG   0.0000 
 28 N45      6.4250    -2.3390    20.9680 N.am  1 LIG   0.0000 
 29 C46      5.9170    -2.4720    19.6700 C.2   1 LIG   0.0000 
 30 O47      5.5010    -3.5330    19.2950 O.2   1 LIG   0.0000 
 31 C48      5.8940    -1.2730    18.7360 C.3   1 LIG   0.0000 
 32 CL51     5.2000     0.1280    19.5870 Cl    1 LIG   0.0000 
 33 C52      6.4480    -3.5180    21.8480 C.3   1 LIG   0.0000 
 34 C55      7.6310    -3.4840    22.8040 C.3   1 LIG   0.0000 
 35 N58     10.9060     1.8490    25.0180 N.pl3 1 LIG   0.0000 
 36 H8      10.5270     4.2280    26.0490 H     1 LIG   0.0000 
 37 H12     13.7250     4.2880    22.5320 H     1 LIG   0.0000 
 38 H31     10.5020    -4.4320    25.2220 H     1 LIG   0.0000 
 39 H33      9.7060    -5.9090    27.0780 H     1 LIG   0.0000 
 40 H171    13.7550     1.8100    22.6210 H     1 LIG   0.0000 
 41 H172    12.2400     1.7630    22.0140 H     1 LIG   0.0000 
 42 H20     13.1430     0.4670    24.4260 H     1 LIG   0.0000 
 43 H22     10.4500     0.6970    23.4200 H     1 LIG   0.0000 
 44 H231    11.0120    -0.4910    25.9430 H     1 LIG   0.0000 
 45 H232    11.2340    -1.3940    24.6010 H     1 LIG   0.0000 
 46 H261     8.8610    -0.8720    25.8390 H     1 LIG   0.0000 
 47 H262     8.8080    -0.1630    24.3690 H     1 LIG   0.0000 
 48 H29      9.7900    -2.4850    23.7150 H     1 LIG   0.0000 
 49 H38      6.9970    -1.9020    23.9520 H     1 LIG   0.0000 
 50 H391     8.9020    -1.4320    21.8720 H     1 LIG   0.0000 
 51 H392     8.2400    -0.2700    22.8100 H     1 LIG   0.0000 
 52 H421     6.1840    -0.5180    21.8330 H     1 LIG   0.0000 
 53 H422     7.2410    -0.5190    20.5880 H     1 LIG   0.0000 
 54 H481     6.8260    -1.0590    18.4450 H     1 LIG   0.0000 
 55 H482     5.3350    -1.4860    17.9340 H     1 LIG   0.0000 
 56 H521     6.5110    -4.3420    21.2840 H     1 LIG   0.0000 
 57 H522     5.6020    -3.5430    22.3800 H     1 LIG   0.0000 
 58 H551     7.4810    -4.1580    23.5280 H     1 LIG   0.0000 
 59 H552     8.4620    -3.7170    22.2980 H     1 LIG   0.0000 
 60 H11     13.4370     7.5820    25.3320 H     1 LIG   0.0000 
 61 H12     12.3200     8.5520    24.6410 H     1 LIG   0.0000 
 62 H58     10.3510     1.8080    25.8490 H     1 LIG   0.0000 
 63 H15     14.0620     7.0040    24.1400 H     1 LIG   0.0000 
@<TRIPOS>BOND
  1   1   2  am  
  2   1  60  1   
  3   1  61  1   
  4   2   3  2   
  5   2   4  2   
  6   2   5  1   
  7   5   6  ar  
  8   5  10  ar  
  9   6   7  ar  
 10   6  36  1   
 11   7   8  ar  
 12   7  35  1   
 13   8   9  ar  
 14   8  12  1   
 15   9  10  ar  
 16   9  37  1   
 17  10  11  1   
 18  11  63  1   
 19  12  13  1   
 20  12  40  1   
 21  12  41  1   
 22  13  14  1   
 23  13  15  1   
 24  13  42  1   
 25  15  16  1   
 26  15  35  1   
 27  15  43  1   
 28  16  17  1   
 29  16  44  1   
 30  16  45  1   
 31  17  18  1   
 32  17  46  1   
 33  17  47  1   
 34  18  19  1   
 35  18  25  1   
 36  18  48  1   
 37  19  20  2   
 38  19  24  1   
 39  20  21  1   
 40  20  38  1   
 41  21  22  2   
 42  21  39  1   
 43  22  23  1   
 44  22  24  1   
 45  25  26  1   
 46  25  34  1   
 47  25  49  1   
 48  26  27  1   
 49  26  50  1   
 50  26  51  1   
 51  27  28  1   
 52  27  52  1   
 53  27  53  1   
 54  28  29  am  
 55  28  33  1   
 56  29  30  2   
 57  29  31  1   
 58  31  32  1   
 59  31  54  1   
 60  31  55  1   
 61  33  34  1   
 62  33  56  1   
 63  33  57  1   
 64  34  58  1   
 65  34  59  1   
 66  35  62  1   
@<TRIPOS>SUBSTRUCTURE
  1 LIG  15 GROUP 4 **** **** 0
@<TRIPOS>PROPERTY_DATA
index	|	ligand209
Name	|	HEN-UNK-30c-1
ChemPlp	|	-98.1894
MM-GBSA Nwat=0	|	8.464
STDEV0	|	5.3925
MM-GBSA Nwat=30	|	13.3831
STDEV30	|	12.8831
MM-GBSA Nwat=60	|	-27.9053
STDEV60	|	11.8594
ST.DEV < 10%	|	N
RMSD LIG < 2	|	
DIST < 5	|	
DIST < 3.5	|	N

# MOE 2019.01 (io_trps.svl 2018.10)

@<TRIPOS>MOLECULE
ligand459
44 46 1 0 0 
SMALL
NO_CHARGES


@<TRIPOS>ATOM
  1 O1       4.9970    -3.8330    21.7820 O.2   1 LIG   0.0000 
  2 C2       6.1130    -3.9660    21.3620 C.2   1 LIG   0.0000 
  3 C3       6.5460    -5.2940    20.7630 C.3   1 LIG   0.0000 
  4 CL6      6.7000    -6.5060    22.0580 Cl    1 LIG   0.0000 
  5 N7       6.9960    -2.9210    21.4210 N.am  1 LIG   0.0000 
  6 C8       8.3270    -3.1160    22.0140 C.3   1 LIG   0.0000 
  7 C11      8.2600    -2.8480    23.5090 C.2   1 LIG   0.0000 
  8 C12      7.1260    -2.7670    24.2550 C.2   1 LIG   0.0000 
  9 N14      7.5500    -2.5180    25.5230 N.2   1 LIG   0.0000 
 10 N15      8.8220    -2.4450    25.5320 N.2   1 LIG   0.0000 
 11 N16      9.3240    -2.6410    24.3360 N.pl3 1 LIG   0.0000 
 12 C17     10.7470    -2.6360    23.9700 C.3   1 LIG   0.0000 
 13 C20     11.2350    -1.2020    23.8520 C.ar  1 LIG   0.0000 
 14 C21     10.8240    -0.2590    24.7890 C.ar  1 LIG   0.0000 
 15 C23     11.2750     1.0520    24.6750 C.ar  1 LIG   0.0000 
 16 C25     12.1270     1.4070    23.6350 C.ar  1 LIG   0.0000 
 17 CL26    12.7020     3.0860    23.4940 Cl    1 LIG   0.0000 
 18 C27     12.5380     0.4640    22.6980 C.ar  1 LIG   0.0000 
 19 C29     12.0870    -0.8470    22.8120 C.ar  1 LIG   0.0000 
 20 C31      6.6140    -1.6030    20.8910 C.3   1 LIG   0.0000 
 21 C32      7.9060    -0.9040    20.5000 C.3   1 LIG   0.0000 
 22 C35      7.6450     0.0670    19.3530 C.3   1 LIG   0.0000 
 23 S38      5.9100    -0.1770    18.9150 S.o2  1 LIG   0.0000 
 24 O39      5.6720    -0.1420    17.4240 O.2   1 LIG   0.0000 
 25 O40      5.0020     0.7630    19.6720 O.2   1 LIG   0.0000 
 26 C41      5.8760    -1.8480    19.5960 C.3   1 LIG   0.0000 
 27 H12      6.1820    -2.8690    23.9400 H     1 LIG   0.0000 
 28 H21     10.2120    -0.5200    25.5350 H     1 LIG   0.0000 
 29 H23     10.9870     1.7400    25.3410 H     1 LIG   0.0000 
 30 H27     13.1500     0.7250    21.9520 H     1 LIG   0.0000 
 31 H29     12.3750    -1.5350    22.1460 H     1 LIG   0.0000 
 32 H31      5.8620    -5.6000    20.1000 H     1 LIG   0.0000 
 33 H32      7.4270    -5.1820    20.3050 H     1 LIG   0.0000 
 34 H81      8.9770    -2.4850    21.5900 H     1 LIG   0.0000 
 35 H82      8.6270    -4.0570    21.8570 H     1 LIG   0.0000 
 36 H171    10.8680    -3.1020    23.0930 H     1 LIG   0.0000 
 37 H172    11.2750    -3.1100    24.6740 H     1 LIG   0.0000 
 38 H31      6.0740    -1.0710    21.5440 H     1 LIG   0.0000 
 39 H321     8.5770    -1.5870    20.2100 H     1 LIG   0.0000 
 40 H322     8.2610    -0.4000    21.2870 H     1 LIG   0.0000 
 41 H351     7.8040     1.0090    19.6480 H     1 LIG   0.0000 
 42 H352     8.2370    -0.1430    18.5750 H     1 LIG   0.0000 
 43 H411     6.3570    -2.5000    19.0100 H     1 LIG   0.0000 
 44 H412     4.9410    -2.1680    19.7530 H     1 LIG   0.0000 
@<TRIPOS>BOND
  1   1   2  2   
  2   2   3  1   
  3   2   5  am  
  4   3   4  1   
  5   3  32  1   
  6   3  33  1   
  7   5   6  1   
  8   5  20  1   
  9   6   7  1   
 10   6  34  1   
 11   6  35  1   
 12   7   8  2   
 13   7  11  1   
 14   8   9  1   
 15   8  27  1   
 16   9  10  2   
 17  10  11  1   
 18  11  12  1   
 19  12  13  1   
 20  12  36  1   
 21  12  37  1   
 22  13  14  ar  
 23  13  19  ar  
 24  14  15  ar  
 25  14  28  1   
 26  15  16  ar  
 27  15  29  1   
 28  16  17  1   
 29  16  18  ar  
 30  18  19  ar  
 31  18  30  1   
 32  19  31  1   
 33  20  21  1   
 34  20  26  1   
 35  20  38  1   
 36  21  22  1   
 37  21  39  1   
 38  21  40  1   
 39  22  23  1   
 40  22  41  1   
 41  22  42  1   
 42  23  24  2   
 43  23  25  2   
 44  23  26  1   
 45  26  43  1   
 46  26  44  1   
@<TRIPOS>SUBSTRUCTURE
  1 LIG   6 GROUP 4 **** **** 0
@<TRIPOS>PROPERTY_DATA
index	|	ligand459
Name	|	NIM-UNI-bb6-1
ChemPlp	|	-91.7268
MM-GBSA Nwat=0	|	30.1638
STDEV0	|	11.2262
MM-GBSA Nwat=30	|	14.0519
STDEV30	|	14.3441
MM-GBSA Nwat=60	|	7.8088
STDEV60	|	11.9659
ST.DEV < 10%	|	N
RMSD LIG < 2	|	
DIST < 5	|	
DIST < 3.5	|	N

# MOE 2019.01 (io_trps.svl 2018.10)

@<TRIPOS>MOLECULE
ligand162
73 76 1 0 0 
SMALL
NO_CHARGES


@<TRIPOS>ATOM
  1 C1       1.8360    -7.7740    25.4080 C.3   1 LIG   0.0000 
  2 C5       2.5200    -7.4290    24.0950 C.3   1 LIG   0.0000 
  3 N6       2.0160    -8.3130    23.0340 N.3   1 LIG   0.0000 
  4 N9       3.9720    -7.6110    24.2360 N.3   1 LIG   0.0000 
  5 C11      4.6350    -6.2990    24.2040 C.3   1 LIG   0.0000 
  6 C12      5.6720    -6.2830    23.0930 C.3   1 LIG   0.0000 
  7 C15      5.9290    -4.8480    22.6610 C.2   1 LIG   0.0000 
  8 N16      6.6620    -4.0130    23.4620 N.am  1 LIG   0.0000 
  9 O19      5.4900    -4.4480    21.6180 O.2   1 LIG   0.0000 
 10 C20      5.3170    -6.0430    25.5380 C.2   1 LIG   0.0000 
 11 O21      5.2010    -6.8340    26.4330 O.2   1 LIG   0.0000 
 12 N22      6.0640    -4.9090    25.7190 N.am  1 LIG   0.0000 
 13 C24      6.7240    -4.6620    27.0100 C.3   1 LIG   0.0000 
 14 C25      8.1960    -5.0400    26.9540 C.3   1 LIG   0.0000 
 15 C28      8.9760    -4.0520    26.1010 C.3   1 LIG   0.0000 
 16 C31      8.8700    -2.6490    26.6790 C.3   1 LIG   0.0000 
 17 C32      9.6020    -1.7080    25.7350 C.2   1 LIG   0.0000 
 18 N33      9.8100    -0.4240    25.8960 N.2   1 LIG   0.0000 
 19 C34     10.5060     0.2180    24.8940 C.ar  1 LIG   0.0000 
 20 C35     10.9170     1.5330    24.6950 C.ar  1 LIG   0.0000 
 21 C37     11.6290     1.9320    23.5650 C.ar  1 LIG   0.0000 
 22 C38     12.0490     3.3060    23.3720 C.ar  1 LIG   0.0000 
 23 C39     12.7080     3.6730    22.2020 C.ar  1 LIG   0.0000 
 24 C41     13.1030     4.9960    22.0330 C.ar  1 LIG   0.0000 
 25 C43     12.8470     5.9470    23.0150 C.ar  1 LIG   0.0000 
 26 C45     12.1880     5.5590    24.1770 C.ar  1 LIG   0.0000 
 27 S46     11.8650     6.7430    25.4100 S.o2  1 LIG   0.0000 
 28 N47     12.8530     8.0240    25.2060 N.am  1 LIG   0.0000 
 29 O50     10.4950     7.1750    25.3160 O.2   1 LIG   0.0000 
 30 O51     12.0970     6.1610    26.7070 O.2   1 LIG   0.0000 
 31 C52     11.7840     4.2420    24.3660 C.ar  1 LIG   0.0000 
 32 C54     11.9730     1.0350    22.5620 C.ar  1 LIG   0.0000 
 33 C56     11.5920    -0.2900    22.7000 C.ar  1 LIG   0.0000 
 34 C58     10.8870    -0.6020    23.8530 C.ar  1 LIG   0.0000 
 35 S59     10.3120    -2.1480    24.2520 S.3   1 LIG   0.0000 
 36 C60      7.4260    -2.1810    26.8080 C.3   1 LIG   0.0000 
 37 N63      6.5320    -3.2360    27.3180 N.am  1 LIG   0.0000 
 38 C64      5.4520    -2.8810    28.1350 C.2   1 LIG   0.0000 
 39 O65      4.7170    -3.7300    28.5600 O.2   1 LIG   0.0000 
 40 C66      5.2090    -1.4220    28.4830 C.3   1 LIG   0.0000 
 41 CL69     3.9180    -1.3090    29.7040 Cl    1 LIG   0.0000 
 42 H35     10.6930     2.2180    25.3890 H     1 LIG   0.0000 
 43 H54     12.4840     1.3390    21.7570 H     1 LIG   0.0000 
 44 H56     11.8110    -0.9790    22.0100 H     1 LIG   0.0000 
 45 H39     12.8950     2.9940    21.4930 H     1 LIG   0.0000 
 46 H41     13.5770     5.2660    21.1950 H     1 LIG   0.0000 
 47 H43     13.1340     6.8970    22.8870 H     1 LIG   0.0000 
 48 H52     11.3100     3.9720    25.2040 H     1 LIG   0.0000 
 49 H11      0.8480    -7.6510    25.3120 H     1 LIG   0.0000 
 50 H12      2.0310    -8.7260    25.6460 H     1 LIG   0.0000 
 51 H13      2.1790    -7.1730    26.1300 H     1 LIG   0.0000 
 52 H5       2.3240    -6.4780    23.8580 H     1 LIG   0.0000 
 53 H11      3.9540    -5.5860    24.0350 H     1 LIG   0.0000 
 54 H121     6.5230    -6.6880    23.4260 H     1 LIG   0.0000 
 55 H122     5.3340    -6.8100    22.3140 H     1 LIG   0.0000 
 56 H24      6.2750    -5.2100    27.7150 H     1 LIG   0.0000 
 57 H251     8.2850    -5.9550    26.5600 H     1 LIG   0.0000 
 58 H252     8.5700    -5.0400    27.8810 H     1 LIG   0.0000 
 59 H281     9.9380    -4.3250    26.0770 H     1 LIG   0.0000 
 60 H282     8.6060    -4.0540    25.1720 H     1 LIG   0.0000 
 61 H31      9.3080    -2.6260    27.5780 H     1 LIG   0.0000 
 62 H601     7.3960    -1.4040    27.4370 H     1 LIG   0.0000 
 63 H602     7.1010    -1.8930    25.9070 H     1 LIG   0.0000 
 64 H661     6.0500    -1.0220    28.8500 H     1 LIG   0.0000 
 65 H662     4.9340    -0.9240    27.6610 H     1 LIG   0.0000 
 66 H61      1.0280    -8.1890    22.9380 H     1 LIG   0.0000 
 67 H62      2.4660    -8.0860    22.1700 H     1 LIG   0.0000 
 68 H9       4.3120    -8.1750    23.4840 H     1 LIG   0.0000 
 69 H161     7.0280    -4.3460    24.3310 H     1 LIG   0.0000 
 70 H162     6.8310    -3.0690    23.1780 H     1 LIG   0.0000 
 71 H22      6.1610    -4.2500    24.9730 H     1 LIG   0.0000 
 72 H471    13.7780     7.7020    25.0020 H     1 LIG   0.0000 
 73 H472    12.5200     8.5840    24.4470 H     1 LIG   0.0000 
@<TRIPOS>BOND
  1   1   2  1   
  2   1  49  1   
  3   1  50  1   
  4   1  51  1   
  5   2   3  1   
  6   2   4  1   
  7   2  52  1   
  8   3  66  1   
  9   3  67  1   
 10   4   5  1   
 11   4  68  1   
 12   5   6  1   
 13   5  10  1   
 14   5  53  1   
 15   6   7  1   
 16   6  54  1   
 17   6  55  1   
 18   7   8  am  
 19   7   9  2   
 20   8  69  1   
 21   8  70  1   
 22  10  11  2   
 23  10  12  am  
 24  12  13  1   
 25  12  71  1   
 26  13  14  1   
 27  13  37  1   
 28  13  56  1   
 29  14  15  1   
 30  14  57  1   
 31  14  58  1   
 32  15  16  1   
 33  15  59  1   
 34  15  60  1   
 35  16  17  1   
 36  16  36  1   
 37  16  61  1   
 38  17  18  2   
 39  17  35  1   
 40  18  19  1   
 41  19  20  ar  
 42  19  34  ar  
 43  20  21  ar  
 44  20  42  1   
 45  21  22  1   
 46  21  32  ar  
 47  22  23  ar  
 48  22  31  ar  
 49  23  24  ar  
 50  23  45  1   
 51  24  25  ar  
 52  24  46  1   
 53  25  26  ar  
 54  25  47  1   
 55  26  27  1   
 56  26  31  ar  
 57  27  28  am  
 58  27  29  2   
 59  27  30  2   
 60  28  72  1   
 61  28  73  1   
 62  31  48  1   
 63  32  33  ar  
 64  32  43  1   
 65  33  34  ar  
 66  33  44  1   
 67  34  35  1   
 68  36  37  1   
 69  36  62  1   
 70  36  63  1   
 71  37  38  am  
 72  38  39  2   
 73  38  40  1   
 74  40  41  1   
 75  40  64  1   
 76  40  65  1   
@<TRIPOS>SUBSTRUCTURE
  1 LIG  17 GROUP 4 **** **** 0
@<TRIPOS>PROPERTY_DATA
index	|	ligand162
Name	|	DAV-CRI-f9b-3
ChemPlp	|	-101.754
MM-GBSA Nwat=0	|	3.9419
STDEV0	|	6.0542
MM-GBSA Nwat=30	|	15.8397
STDEV30	|	10.8918
MM-GBSA Nwat=60	|	-5.0452
STDEV60	|	9.5617
ST.DEV < 10%	|	N
RMSD LIG < 2	|	
DIST < 5	|	
DIST < 3.5	|	N

# MOE 2019.01 (io_trps.svl 2018.10)

@<TRIPOS>MOLECULE
ligand391
88 94 1 0 0 
SMALL
USER_CHARGES


@<TRIPOS>ATOM
  1 O1       6.5120    -6.1410    27.1520 O.2   1 LIG   0.0000 
  2 C2       7.2660    -5.3110    26.7260 C.2   1 LIG   0.0000 
  3 C3       8.5240    -4.9580    27.5020 C.3   1 LIG   0.0000 
  4 CL6      9.9320    -5.0310    26.4150 Cl    1 LIG   0.0000 
  5 N7       6.9880    -4.6680    25.5140 N.am  1 LIG   0.0000 
  6 C8       7.9270    -3.6520    25.0100 C.3   1 LIG   0.0000 
  7 C11      7.9740    -3.6290    23.4890 C.3   1 LIG   0.0000 
  8 N14      6.6320    -3.6940    22.8870 N.am  1 LIG   0.0000 
  9 S15      6.8590    -3.7410    21.1420 S.o2  1 LIG   0.0000 
 10 O16      5.7860    -4.4860    20.5380 O.2   1 LIG   0.0000 
 11 O17      8.1150    -4.3770    20.8390 O.2   1 LIG   0.0000 
 12 C18      6.8640    -2.1180    20.5140 C.2   1 LIG   0.0000 
 13 C19      7.9130    -1.2470    20.4570 C.2   1 LIG   0.0000 
 14 C21      7.5640     0.0000    19.8750 C.2   1 LIG   0.0000 
 15 C23      6.2640     0.1230    19.4800 C.2   1 LIG   0.0000 
 16 C24      5.6170     1.3380    18.8360 C.3   1 LIG   0.0000 
 17 N27      5.1450     2.2580    19.8880 N.4   1 LIG   1.0000 
 18 C28      3.9140     1.7450    20.5060 C.3   1 LIG   0.0000 
 19 C31      3.4100     2.7090    21.5680 C.3   1 LIG   0.0000 
 20 N34      4.4440     2.9350    22.5890 N.am  1 LIG   0.0000 
 21 S35      3.8790     4.0300    23.8460 S.o2  1 LIG   0.0000 
 22 O36      3.9530     5.3870    23.3690 O.2   1 LIG   0.0000 
 23 O37      2.5150     3.7120    24.1810 O.2   1 LIG   0.0000 
 24 C38      4.8790     3.8560    25.2600 C.ar  1 LIG   0.0000 
 25 C39      4.3480     3.1760    26.3500 C.ar  1 LIG   0.0000 
 26 C41      5.1070     3.0100    27.5040 C.ar  1 LIG   0.0000 
 27 C43      6.4000     3.5170    27.5840 C.ar  1 LIG   0.0000 
 28 C45      6.9270     4.1960    26.4910 C.ar  1 LIG   0.0000 
 29 C46      8.2210     4.6970    26.5860 C.ar  1 LIG   0.0000 
 30 C48      8.7720     5.3800    25.5050 C.ar  1 LIG   0.0000 
 31 C49     10.1870     5.9190    25.6310 C.3   1 LIG   0.0000 
 32 C52     11.1430     5.0110    24.8770 C.2   1 LIG   0.0000 
 33 C53     12.2700     5.3880    24.2060 C.2   1 LIG   0.0000 
 34 C55     12.9940     4.3330    23.5900 C.2   1 LIG   0.0000 
 35 C57     12.4180     3.1130    23.7800 C.2   1 LIG   0.0000 
 36 CL58    12.9710     1.5270    23.1920 Cl    1 LIG   0.0000 
 37 S59     11.0060     3.3220    24.7100 S.3   1 LIG   0.0000 
 38 C60      8.0390     5.5640    24.3370 C.ar  1 LIG   0.0000 
 39 C61      8.6100     6.3040    23.1380 C.3   1 LIG   0.0000 
 40 C64      7.5220     7.1570    22.5050 C.2   1 LIG   0.0000 
 41 C65      7.0030     6.9960    21.1920 C.2   1 LIG   0.0000 
 42 C67      6.0290     7.8720    20.8190 C.2   1 LIG   0.0000 
 43 S69      5.8080     8.8730    22.1830 S.3   1 LIG   0.0000 
 44 C70      6.9610     8.1720    23.2210 C.2   1 LIG   0.0000 
 45 C72      6.7480     5.0530    24.2660 C.ar  1 LIG   0.0000 
 46 C74      6.1740     4.3670    25.3320 C.ar  1 LIG   0.0000 
 47 C75      5.6770     3.4440    21.9710 C.3   1 LIG   0.0000 
 48 C78      6.1790     2.4780    20.9100 C.3   1 LIG   0.0000 
 49 S81      5.5000    -1.3550    19.8470 S.3   1 LIG   0.0000 
 50 C82      5.9640    -4.9450    23.2800 C.3   1 LIG   0.0000 
 51 C85      5.7640    -5.0430    24.7860 C.3   1 LIG   0.0000 
 52 H19      8.8310    -1.4630    20.7900 H     1 LIG   0.0000 
 53 H21      8.2280     0.7390    19.7620 H     1 LIG   0.0000 
 54 H39      3.4190     2.8070    26.3050 H     1 LIG   0.0000 
 55 H41      4.7180     2.5210    28.2840 H     1 LIG   0.0000 
 56 H43      6.9420     3.3950    28.4160 H     1 LIG   0.0000 
 57 H46      8.7520     4.5680    27.4240 H     1 LIG   0.0000 
 58 H72      6.2180     5.1830    23.4280 H     1 LIG   0.0000 
 59 H53     12.5650     6.3420    24.1520 H     1 LIG   0.0000 
 60 H55     13.8380     4.4710    23.0710 H     1 LIG   0.0000 
 61 H65      7.3340     6.2800    20.5780 H     1 LIG   0.0000 
 62 H67      5.5500     7.9180    19.9420 H     1 LIG   0.0000 
 63 H70      7.1800     8.4470    24.1570 H     1 LIG   0.0000 
 64 H31      8.4380    -4.0330    27.8740 H     1 LIG   0.0000 
 65 H32      8.6470    -5.6080    28.2510 H     1 LIG   0.0000 
 66 H81      8.8420    -3.8570    25.3590 H     1 LIG   0.0000 
 67 H82      7.6390    -2.7530    25.3390 H     1 LIG   0.0000 
 68 H111     8.4180    -2.7830    23.1940 H     1 LIG   0.0000 
 69 H112     8.5070    -4.4140    23.1720 H     1 LIG   0.0000 
 70 H241     6.2870     1.8060    18.2600 H     1 LIG   0.0000 
 71 H242     4.8420     1.0460    18.2760 H     1 LIG   0.0000 
 72 H27      4.9360     3.1380    19.4610 H     1 LIG   0.0000 
 73 H281     4.1020     0.8580    20.9280 H     1 LIG   0.0000 
 74 H282     3.2120     1.6360    19.8010 H     1 LIG   0.0000 
 75 H311     3.1760     3.5800    21.1370 H     1 LIG   0.0000 
 76 H312     2.5960     2.3230    22.0030 H     1 LIG   0.0000 
 77 H491    10.4480     5.9500    26.5960 H     1 LIG   0.0000 
 78 H492    10.2280     6.8400    25.2450 H     1 LIG   0.0000 
 79 H611     8.9480     5.6430    22.4680 H     1 LIG   0.0000 
 80 H612     9.3620     6.8910    23.4370 H     1 LIG   0.0000 
 81 H751     6.3780     3.5520    22.6760 H     1 LIG   0.0000 
 82 H752     5.4920     4.3310    21.5480 H     1 LIG   0.0000 
 83 H781     6.9950     2.8590    20.4770 H     1 LIG   0.0000 
 84 H782     6.4060     1.6040    21.3410 H     1 LIG   0.0000 
 85 H821     6.5230    -5.7170    22.9790 H     1 LIG   0.0000 
 86 H822     5.0700    -4.9860    22.8340 H     1 LIG   0.0000 
 87 H851     5.0230    -4.4290    25.0570 H     1 LIG   0.0000 
 88 H852     5.5210    -5.9840    25.0210 H     1 LIG   0.0000 
@<TRIPOS>BOND
  1   1   2  2   
  2   2   3  1   
  3   2   5  am  
  4   3   4  1   
  5   3  64  1   
  6   3  65  1   
  7   5   6  1   
  8   5  51  1   
  9   6   7  1   
 10   6  66  1   
 11   6  67  1   
 12   7   8  1   
 13   7  68  1   
 14   7  69  1   
 15   8   9  am  
 16   8  50  1   
 17   9  10  2   
 18   9  11  2   
 19   9  12  1   
 20  12  13  2   
 21  12  49  1   
 22  13  14  1   
 23  13  52  1   
 24  14  15  2   
 25  14  53  1   
 26  15  16  1   
 27  15  49  1   
 28  16  17  1   
 29  16  70  1   
 30  16  71  1   
 31  17  18  1   
 32  17  48  1   
 33  17  72  1   
 34  18  19  1   
 35  18  73  1   
 36  18  74  1   
 37  19  20  1   
 38  19  75  1   
 39  19  76  1   
 40  20  21  am  
 41  20  47  1   
 42  21  22  2   
 43  21  23  2   
 44  21  24  1   
 45  24  25  ar  
 46  24  46  ar  
 47  25  26  ar  
 48  25  54  1   
 49  26  27  ar  
 50  26  55  1   
 51  27  28  ar  
 52  27  56  1   
 53  28  29  ar  
 54  28  46  ar  
 55  29  30  ar  
 56  29  57  1   
 57  30  31  1   
 58  30  38  ar  
 59  31  32  1   
 60  31  77  1   
 61  31  78  1   
 62  32  33  2   
 63  32  37  1   
 64  33  34  1   
 65  33  59  1   
 66  34  35  2   
 67  34  60  1   
 68  35  36  1   
 69  35  37  1   
 70  38  39  1   
 71  38  45  ar  
 72  39  40  1   
 73  39  79  1   
 74  39  80  1   
 75  40  41  1   
 76  40  44  2   
 77  41  42  2   
 78  41  61  1   
 79  42  43  1   
 80  42  62  1   
 81  43  44  1   
 82  44  63  1   
 83  45  46  ar  
 84  45  58  1   
 85  47  48  1   
 86  47  81  1   
 87  47  82  1   
 88  48  83  1   
 89  48  84  1   
 90  50  51  1   
 91  50  85  1   
 92  50  86  1   
 93  51  87  1   
 94  51  88  1   
@<TRIPOS>SUBSTRUCTURE
  1 LIG  47 GROUP 4 **** **** 0
@<TRIPOS>PROPERTY_DATA
index	|	ligand391
Name	|	MAK-UNK-e05-3
ChemPlp	|	-114.538
MM-GBSA Nwat=0	|	16.2374
STDEV0	|	6.8044
MM-GBSA Nwat=30	|	16.2126
STDEV30	|	18.7459
MM-GBSA Nwat=60	|	-33.3712
STDEV60	|	17.1308
ST.DEV < 10%	|	N
RMSD LIG < 2	|	
DIST < 5	|	
DIST < 3.5	|	N

# MOE 2019.01 (io_trps.svl 2018.10)

@<TRIPOS>MOLECULE
ligand460
47 49 1 0 0 
SMALL
NO_CHARGES


@<TRIPOS>ATOM
  1 O1       5.5000    -3.6660    20.0680 O.2   1 LIG   0.0000 
  2 C2       6.3740    -3.0600    20.6240 C.2   1 LIG   0.0000 
  3 C3       7.6780    -3.7570    20.9770 C.3   1 LIG   0.0000 
  4 N6       7.5890    -4.3020    22.3390 N.pl3 1 LIG   0.0000 
  5 C7       8.4960    -4.1050    23.3320 C.2   1 LIG   0.0000 
  6 C9       7.9960    -4.7940    24.3910 C.2   1 LIG   0.0000 
  7 C10      8.6360    -4.9040    25.7660 C.3   1 LIG   0.0000 
  8 N13      8.0370    -3.9070    26.6650 N.am  1 LIG   0.0000 
  9 C14      8.2200    -2.5710    26.4260 C.2   1 LIG   0.0000 
 10 O15      9.1080    -2.2060    25.7060 O.2   1 LIG   0.0000 
 11 C16      7.2980    -1.5500    27.0720 C.3   1 LIG   0.0000 
 12 CL19     7.6330     0.0630    26.3970 Cl    1 LIG   0.0000 
 13 C20      7.2420    -4.3450    27.8230 C.3   1 LIG   0.0000 
 14 C21      5.8550    -4.6700    27.2930 C.3   1 LIG   0.0000 
 15 C24      5.2080    -5.7470    28.1580 C.3   1 LIG   0.0000 
 16 S27      6.4800    -6.2210    29.3500 S.o2  1 LIG   0.0000 
 17 O28      6.5130    -7.7080    29.6110 O.2   1 LIG   0.0000 
 18 O29      6.3900    -5.4090    30.6200 O.2   1 LIG   0.0000 
 19 C30      7.8220    -5.6620    28.2810 C.3   1 LIG   0.0000 
 20 N33      6.8250    -5.3720    24.0040 N.2   1 LIG   0.0000 
 21 N34      6.6230    -5.0600    22.7970 N.2   1 LIG   0.0000 
 22 N35      6.1960    -1.7390    20.9410 N.am  1 LIG   0.0000 
 23 C37      5.9980    -0.7960    19.9240 C.ar  1 LIG   0.0000 
 24 C38      5.6880     0.5200    20.2460 C.ar  1 LIG   0.0000 
 25 C40      5.4910     1.4550    19.2360 C.ar  1 LIG   0.0000 
 26 C42      5.6080     1.0420    17.9130 C.ar  1 LIG   0.0000 
 27 N44      5.9060    -0.2320    17.6180 N.ar  1 LIG   0.0000 
 28 C45      6.1000    -1.1440    18.5820 C.ar  1 LIG   0.0000 
 29 H7       9.3410    -3.5720    23.2920 H     1 LIG   0.0000 
 30 H38      5.6060     0.7950    21.2040 H     1 LIG   0.0000 
 31 H40      5.2690     2.4050    19.4560 H     1 LIG   0.0000 
 32 H42      5.4700     1.7020    17.1740 H     1 LIG   0.0000 
 33 H45      6.3210    -2.0870    18.3320 H     1 LIG   0.0000 
 34 H31      7.8430    -4.5010    20.3300 H     1 LIG   0.0000 
 35 H32      8.4300    -3.1000    20.9290 H     1 LIG   0.0000 
 36 H101     8.4810    -5.8200    26.1340 H     1 LIG   0.0000 
 37 H102     9.6190    -4.7360    25.6900 H     1 LIG   0.0000 
 38 H161     6.3470    -1.7970    26.8890 H     1 LIG   0.0000 
 39 H162     7.4550    -1.5370    28.0600 H     1 LIG   0.0000 
 40 H20      7.2220    -3.6620    28.5530 H     1 LIG   0.0000 
 41 H211     5.9280    -5.0010    26.3520 H     1 LIG   0.0000 
 42 H212     5.2900    -3.8450    27.3130 H     1 LIG   0.0000 
 43 H241     4.4040    -5.3830    28.6280 H     1 LIG   0.0000 
 44 H242     4.9400    -6.5320    27.5990 H     1 LIG   0.0000 
 45 H301     7.9760    -6.2880    27.5160 H     1 LIG   0.0000 
 46 H302     8.6760    -5.5380    28.7870 H     1 LIG   0.0000 
 47 H35      6.2080    -1.4480    21.8970 H     1 LIG   0.0000 
@<TRIPOS>BOND
  1   1   2  2   
  2   2   3  1   
  3   2  22  am  
  4   3   4  1   
  5   3  34  1   
  6   3  35  1   
  7   4   5  1   
  8   4  21  1   
  9   5   6  2   
 10   5  29  1   
 11   6   7  1   
 12   6  20  1   
 13   7   8  1   
 14   7  36  1   
 15   7  37  1   
 16   8   9  am  
 17   8  13  1   
 18   9  10  2   
 19   9  11  1   
 20  11  12  1   
 21  11  38  1   
 22  11  39  1   
 23  13  14  1   
 24  13  19  1   
 25  13  40  1   
 26  14  15  1   
 27  14  41  1   
 28  14  42  1   
 29  15  16  1   
 30  15  43  1   
 31  15  44  1   
 32  16  17  2   
 33  16  18  2   
 34  16  19  1   
 35  19  45  1   
 36  19  46  1   
 37  20  21  2   
 38  22  23  1   
 39  22  47  1   
 40  23  24  ar  
 41  23  28  ar  
 42  24  25  ar  
 43  24  30  1   
 44  25  26  ar  
 45  25  31  1   
 46  26  27  ar  
 47  26  32  1   
 48  27  28  ar  
 49  28  33  1   
@<TRIPOS>SUBSTRUCTURE
  1 LIG   5 GROUP 4 **** **** 0
@<TRIPOS>PROPERTY_DATA
index	|	ligand460
Name	|	NIM-UNI-bb6-2
ChemPlp	|	-94.3147
MM-GBSA Nwat=0	|	4.5381
STDEV0	|	8.9189
MM-GBSA Nwat=30	|	16.6857
STDEV30	|	14.7507
MM-GBSA Nwat=60	|	-14.608
STDEV60	|	15.1936
ST.DEV < 10%	|	N
RMSD LIG < 2	|	
DIST < 5	|	
DIST < 3.5	|	N

# MOE 2019.01 (io_trps.svl 2018.10)

@<TRIPOS>MOLECULE
ligand452
44 46 1 0 0 
SMALL
NO_CHARGES


@<TRIPOS>ATOM
  1 O1       5.0050    -3.8180    21.7980 O.2   1 LIG   0.0000 
  2 C2       6.1130    -3.9760    21.3650 C.2   1 LIG   0.0000 
  3 C3       6.5070    -5.3120    20.7560 C.3   1 LIG   0.0000 
  4 CL6      6.7000    -6.5190    22.0490 Cl    1 LIG   0.0000 
  5 N7       7.0220    -2.9530    21.4190 N.am  1 LIG   0.0000 
  6 C8       8.3540    -3.1830    21.9960 C.3   1 LIG   0.0000 
  7 C11      8.3170    -2.8910    23.4880 C.2   1 LIG   0.0000 
  8 C12      7.1980    -2.8160    24.2590 C.2   1 LIG   0.0000 
  9 N14      7.6470    -2.5390    25.5130 N.2   1 LIG   0.0000 
 10 N15      8.9180    -2.4460    25.4910 N.2   1 LIG   0.0000 
 11 N16      9.3950    -2.6540    24.2870 N.pl3 1 LIG   0.0000 
 12 C17     10.8100    -2.6320    23.8880 C.3   1 LIG   0.0000 
 13 C20     11.2850    -1.1930    23.7880 C.ar  1 LIG   0.0000 
 14 C21     12.1130    -0.8160    22.7360 C.ar  1 LIG   0.0000 
 15 C23     12.5440     0.5050    22.6510 C.ar  1 LIG   0.0000 
 16 C25     12.1460     1.4290    23.6100 C.ar  1 LIG   0.0000 
 17 CL26    12.7000     3.1170    23.4950 Cl    1 LIG   0.0000 
 18 C27     11.3180     1.0520    24.6620 C.ar  1 LIG   0.0000 
 19 C29     10.8870    -0.2680    24.7470 C.ar  1 LIG   0.0000 
 20 C31      6.6650    -1.6240    20.8990 C.3   1 LIG   0.0000 
 21 C32      7.9680    -0.9590    20.4860 C.3   1 LIG   0.0000 
 22 C35      7.7140     0.0220    19.3460 C.3   1 LIG   0.0000 
 23 S38      5.9650    -0.1750    18.9380 S.o2  1 LIG   0.0000 
 24 O39      5.7020    -0.1300    17.4520 O.2   1 LIG   0.0000 
 25 O40      5.0960     0.7870    19.7130 O.2   1 LIG   0.0000 
 26 C41      5.8980    -1.8460    19.6160 C.3   1 LIG   0.0000 
 27 H12      6.2500    -2.9380    23.9670 H     1 LIG   0.0000 
 28 H21     12.3960    -1.4850    22.0490 H     1 LIG   0.0000 
 29 H23     13.1400     0.7880    21.8990 H     1 LIG   0.0000 
 30 H27     11.0350     1.7220    25.3480 H     1 LIG   0.0000 
 31 H29     10.2910    -0.5520    25.4980 H     1 LIG   0.0000 
 32 H31      5.7940    -5.6130    20.1220 H     1 LIG   0.0000 
 33 H32      7.3710    -5.2110    20.2620 H     1 LIG   0.0000 
 34 H81      9.0180    -2.5790    21.5550 H     1 LIG   0.0000 
 35 H82      8.6210    -4.1350    21.8500 H     1 LIG   0.0000 
 36 H171    10.9130    -3.0800    23.0000 H     1 LIG   0.0000 
 37 H172    11.3560    -3.1170    24.5720 H     1 LIG   0.0000 
 38 H31      6.1520    -1.0790    21.5620 H     1 LIG   0.0000 
 39 H321     8.6160    -1.6580    20.1830 H     1 LIG   0.0000 
 40 H322     8.3510    -0.4660    21.2680 H     1 LIG   0.0000 
 41 H351     7.9030     0.9580    19.6410 H     1 LIG   0.0000 
 42 H352     8.2860    -0.2020    18.5570 H     1 LIG   0.0000 
 43 H411     6.3510    -2.5090    19.0200 H     1 LIG   0.0000 
 44 H412     4.9590    -2.1410    19.7900 H     1 LIG   0.0000 
@<TRIPOS>BOND
  1   1   2  2   
  2   2   3  1   
  3   2   5  am  
  4   3   4  1   
  5   3  32  1   
  6   3  33  1   
  7   5   6  1   
  8   5  20  1   
  9   6   7  1   
 10   6  34  1   
 11   6  35  1   
 12   7   8  2   
 13   7  11  1   
 14   8   9  1   
 15   8  27  1   
 16   9  10  2   
 17  10  11  1   
 18  11  12  1   
 19  12  13  1   
 20  12  36  1   
 21  12  37  1   
 22  13  14  ar  
 23  13  19  ar  
 24  14  15  ar  
 25  14  28  1   
 26  15  16  ar  
 27  15  29  1   
 28  16  17  1   
 29  16  18  ar  
 30  18  19  ar  
 31  18  30  1   
 32  19  31  1   
 33  20  21  1   
 34  20  26  1   
 35  20  38  1   
 36  21  22  1   
 37  21  39  1   
 38  21  40  1   
 39  22  23  1   
 40  22  41  1   
 41  22  42  1   
 42  23  24  2   
 43  23  25  2   
 44  23  26  1   
 45  26  43  1   
 46  26  44  1   
@<TRIPOS>SUBSTRUCTURE
  1 LIG   6 GROUP 4 **** **** 0
@<TRIPOS>PROPERTY_DATA
index	|	ligand452
Name	|	NIM-UNI-594-2
ChemPlp	|	-91.6789
MM-GBSA Nwat=0	|	22.5071
STDEV0	|	4.0975
MM-GBSA Nwat=30	|	17.4589
STDEV30	|	13.0058
MM-GBSA Nwat=60	|	3.402
STDEV60	|	12.4162
ST.DEV < 10%	|	N
RMSD LIG < 2	|	
DIST < 5	|	
DIST < 3.5	|	N

# MOE 2019.01 (io_trps.svl 2018.10)

@<TRIPOS>MOLECULE
ligand159
73 76 1 0 0 
SMALL
NO_CHARGES


@<TRIPOS>ATOM
  1 C1       6.7050    -6.5970    22.1000 C.3   1 LIG   0.0000 
  2 C5       5.4980    -5.7130    21.8320 C.3   1 LIG   0.0000 
  3 N6       4.3450    -6.2120    22.5950 N.3   1 LIG   0.0000 
  4 N9       5.7990    -4.3340    22.2440 N.3   1 LIG   0.0000 
  5 C11      7.0720    -3.9100    21.6430 C.3   1 LIG   0.0000 
  6 C12      6.9220    -2.5080    21.0750 C.3   1 LIG   0.0000 
  7 C15      5.9140    -2.5260    19.9380 C.2   1 LIG   0.0000 
  8 N16      5.4750    -1.3490    19.3920 N.am  1 LIG   0.0000 
  9 O19      5.5020    -3.5730    19.5190 O.2   1 LIG   0.0000 
 10 C20      8.1600    -3.9140    22.7050 C.2   1 LIG   0.0000 
 11 O21      8.1810    -4.7760    23.5380 O.2   1 LIG   0.0000 
 12 N22      9.1150    -2.9320    22.7100 N.am  1 LIG   0.0000 
 13 C24     10.1680    -2.9350    23.7370 C.3   1 LIG   0.0000 
 14 C25     11.4440    -2.2940    23.2160 C.3   1 LIG   0.0000 
 15 C28     11.2720    -0.7900    23.0650 C.3   1 LIG   0.0000 
 16 C31     10.9360    -0.1560    24.4070 C.3   1 LIG   0.0000 
 17 C32     10.7000     1.3280    24.1650 C.2   1 LIG   0.0000 
 18 N33      9.5790     1.9060    23.8110 N.2   1 LIG   0.0000 
 19 C34      9.6150     3.2740    23.6530 C.ar  1 LIG   0.0000 
 20 C35      8.6670     4.2300    23.2960 C.ar  1 LIG   0.0000 
 21 C37      8.9690     5.5870    23.2080 C.ar  1 LIG   0.0000 
 22 C38      7.9710     6.5700    22.8330 C.ar  1 LIG   0.0000 
 23 C39      7.6560     7.5970    23.7180 C.ar  1 LIG   0.0000 
 24 C41      6.7010     8.5460    23.3690 C.ar  1 LIG   0.0000 
 25 C43      6.0710     8.4530    22.1330 C.ar  1 LIG   0.0000 
 26 S44      4.8740     9.6330    21.6850 S.o2  1 LIG   0.0000 
 27 N45      5.1580    10.1440    20.1630 N.am  1 LIG   0.0000 
 28 O48      3.5640     9.0400    21.7560 O.2   1 LIG   0.0000 
 29 O49      4.9440    10.7530    22.5880 O.2   1 LIG   0.0000 
 30 C50      6.3820     7.4280    21.2450 C.ar  1 LIG   0.0000 
 31 C52      7.3380     6.4800    21.5980 C.ar  1 LIG   0.0000 
 32 C54     10.2440     6.0730    23.4710 C.ar  1 LIG   0.0000 
 33 C56     11.2330     5.1720    23.8310 C.ar  1 LIG   0.0000 
 34 C58     10.8490     3.8410    23.8950 C.ar  1 LIG   0.0000 
 35 S59     11.8720     2.5530    24.3100 S.3   1 LIG   0.0000 
 36 C60      9.6830    -0.7510    25.0350 C.3   1 LIG   0.0000 
 37 N63      9.6250    -2.2180    24.9030 N.am  1 LIG   0.0000 
 38 C64      9.0350    -2.9750    25.9220 C.2   1 LIG   0.0000 
 39 O65      8.9830    -4.1700    25.8280 O.2   1 LIG   0.0000 
 40 C66      8.4600    -2.2820    27.1470 C.3   1 LIG   0.0000 
 41 CL69     6.6830    -2.3620    27.0930 Cl    1 LIG   0.0000 
 42 H35      7.7340     3.9300    23.0950 H     1 LIG   0.0000 
 43 H54     10.4420     7.0510    23.4020 H     1 LIG   0.0000 
 44 H56     12.1680     5.4640    24.0320 H     1 LIG   0.0000 
 45 H39      8.1160     7.6520    24.6040 H     1 LIG   0.0000 
 46 H41      6.4700     9.2870    24.0000 H     1 LIG   0.0000 
 47 H50      5.9220     7.3720    20.3590 H     1 LIG   0.0000 
 48 H52      7.5690     5.7400    20.9660 H     1 LIG   0.0000 
 49 H11      6.5000    -7.5350    21.8200 H     1 LIG   0.0000 
 50 H12      7.4890    -6.2570    21.5810 H     1 LIG   0.0000 
 51 H13      6.9200    -6.5800    23.0770 H     1 LIG   0.0000 
 52 H5       5.2830    -5.7290    20.8550 H     1 LIG   0.0000 
 53 H11      7.3210    -4.5420    20.9090 H     1 LIG   0.0000 
 54 H121     6.6030    -1.8900    21.7940 H     1 LIG   0.0000 
 55 H122     7.8060    -2.1910    20.7320 H     1 LIG   0.0000 
 56 H24     10.3620    -3.8800    23.9990 H     1 LIG   0.0000 
 57 H251    11.6700    -2.6880    22.3250 H     1 LIG   0.0000 
 58 H252    12.1890    -2.4750    23.8590 H     1 LIG   0.0000 
 59 H281    12.1210    -0.3940    22.7180 H     1 LIG   0.0000 
 60 H282    10.5300    -0.6070    22.4200 H     1 LIG   0.0000 
 61 H31     11.7080    -0.2720    25.0320 H     1 LIG   0.0000 
 62 H601     9.6700    -0.5170    26.0080 H     1 LIG   0.0000 
 63 H602     8.8810    -0.3570    24.5870 H     1 LIG   0.0000 
 64 H661     8.7890    -2.7390    27.9730 H     1 LIG   0.0000 
 65 H662     8.7510    -1.3260    27.1560 H     1 LIG   0.0000 
 66 H61      4.1410    -7.1500    22.3150 H     1 LIG   0.0000 
 67 H62      4.5600    -6.1950    23.5720 H     1 LIG   0.0000 
 68 H9       5.8710    -4.2920    23.2400 H     1 LIG   0.0000 
 69 H161     5.8180    -0.4770    19.7420 H     1 LIG   0.0000 
 70 H162     4.8110    -1.3610    18.6440 H     1 LIG   0.0000 
 71 H22      9.0970    -2.2130    22.0150 H     1 LIG   0.0000 
 72 H451     4.4350    10.7760    19.8830 H     1 LIG   0.0000 
 73 H452     6.0410    10.6110    20.1270 H     1 LIG   0.0000 
@<TRIPOS>BOND
  1   1   2  1   
  2   1  49  1   
  3   1  50  1   
  4   1  51  1   
  5   2   3  1   
  6   2   4  1   
  7   2  52  1   
  8   3  66  1   
  9   3  67  1   
 10   4   5  1   
 11   4  68  1   
 12   5   6  1   
 13   5  10  1   
 14   5  53  1   
 15   6   7  1   
 16   6  54  1   
 17   6  55  1   
 18   7   8  am  
 19   7   9  2   
 20   8  69  1   
 21   8  70  1   
 22  10  11  2   
 23  10  12  am  
 24  12  13  1   
 25  12  71  1   
 26  13  14  1   
 27  13  37  1   
 28  13  56  1   
 29  14  15  1   
 30  14  57  1   
 31  14  58  1   
 32  15  16  1   
 33  15  59  1   
 34  15  60  1   
 35  16  17  1   
 36  16  36  1   
 37  16  61  1   
 38  17  18  2   
 39  17  35  1   
 40  18  19  1   
 41  19  20  ar  
 42  19  34  ar  
 43  20  21  ar  
 44  20  42  1   
 45  21  22  1   
 46  21  32  ar  
 47  22  23  ar  
 48  22  31  ar  
 49  23  24  ar  
 50  23  45  1   
 51  24  25  ar  
 52  24  46  1   
 53  25  26  1   
 54  25  30  ar  
 55  26  27  am  
 56  26  28  2   
 57  26  29  2   
 58  27  72  1   
 59  27  73  1   
 60  30  31  ar  
 61  30  47  1   
 62  31  48  1   
 63  32  33  ar  
 64  32  43  1   
 65  33  34  ar  
 66  33  44  1   
 67  34  35  1   
 68  36  37  1   
 69  36  62  1   
 70  36  63  1   
 71  37  38  am  
 72  38  39  2   
 73  38  40  1   
 74  40  41  1   
 75  40  64  1   
 76  40  65  1   
@<TRIPOS>SUBSTRUCTURE
  1 LIG  18 GROUP 4 **** **** 0
@<TRIPOS>PROPERTY_DATA
index	|	ligand159
Name	|	DAV-CRI-f9b-1
ChemPlp	|	-98.2942
MM-GBSA Nwat=0	|	-0.9168
STDEV0	|	3.7744
MM-GBSA Nwat=30	|	19.5376
STDEV30	|	12.8863
MM-GBSA Nwat=60	|	23.936
STDEV60	|	11.287
ST.DEV < 10%	|	N
RMSD LIG < 2	|	
DIST < 5	|	
DIST < 3.5	|	N

# MOE 2019.01 (io_trps.svl 2018.10)

@<TRIPOS>MOLECULE
ligand172
54 57 1 0 0 
SMALL
USER_CHARGES


@<TRIPOS>ATOM
  1 C1       3.4710    -6.8170    29.4830 C.2   1 LIG   0.0000 
  2 C4       4.2920    -5.8090    29.5040 C.2   1 LIG   0.0000 
  3 S6       6.0100    -6.0870    29.6050 S.o2  1 LIG   0.0000 
  4 O7       6.2800    -7.4920    29.4400 O.2   1 LIG   0.0000 
  5 O8       6.4920    -5.6530    30.8900 O.2   1 LIG   0.0000 
  6 N9       6.8270    -5.1790    28.3350 N.am  1 LIG   0.0000 
  7 C10      7.6050    -6.0640    27.4560 C.3   1 LIG   0.0000 
  8 C13      8.3170    -5.2570    26.3820 C.3   1 LIG   0.0000 
  9 N16      7.3480    -4.4760    25.5990 N.4   1 LIG   1.0000 
 10 C17      8.0320    -3.7180    24.5420 C.ar  1 LIG   0.0000 
 11 C18      9.3530    -3.3230    24.7230 C.ar  1 LIG   0.0000 
 12 C20     10.0010    -2.6060    23.7230 C.ar  1 LIG   0.0000 
 13 C22      9.3180    -2.2910    22.5520 C.ar  1 LIG   0.0000 
 14 C23     10.0220    -1.5050    21.4530 C.3   1 LIG   0.0000 
 15 N24      9.0170    -0.6120    20.8650 N.am  1 LIG   0.0000 
 16 C26      9.4030     0.7000    21.1320 C.2   1 LIG   0.0000 
 17 O27      8.7870     1.7020    20.8030 O.2   1 LIG   0.0000 
 18 C28     10.6420     0.6810    21.8730 C.ar  1 LIG   0.0000 
 19 C29     11.4110     1.7440    22.3370 C.ar  1 LIG   0.0000 
 20 C31     12.5920     1.5140    23.0360 C.ar  1 LIG   0.0000 
 21 C33     13.0120     0.2100    23.2720 C.ar  1 LIG   0.0000 
 22 C35     12.2310    -0.8410    22.8030 C.ar  1 LIG   0.0000 
 23 C37     11.0490    -0.6060    22.1080 C.ar  1 LIG   0.0000 
 24 C38      7.9970    -2.6820    22.3620 C.ar  1 LIG   0.0000 
 25 C40      7.3580    -3.3980    23.3680 C.ar  1 LIG   0.0000 
 26 S41      5.7060    -3.9000    23.1580 S.o2  1 LIG   0.0000 
 27 N42      4.7190    -2.8550    23.9280 N.am  1 LIG   0.0000 
 28 O45      5.3840    -3.9180    21.7550 O.2   1 LIG   0.0000 
 29 O46      5.5310    -5.2190    23.7080 O.2   1 LIG   0.0000 
 30 C47      6.5760    -3.5870    26.4800 C.3   1 LIG   0.0000 
 31 C50      5.8610    -4.3940    27.5520 C.3   1 LIG   0.0000 
 32 H18      9.8350    -3.5540    25.5690 H     1 LIG   0.0000 
 33 H20     10.9510    -2.3180    23.8450 H     1 LIG   0.0000 
 34 H38      7.5150    -2.4510    21.5170 H     1 LIG   0.0000 
 35 H29     11.1120     2.6830    22.1660 H     1 LIG   0.0000 
 36 H31     13.1360     2.2850    23.3670 H     1 LIG   0.0000 
 37 H33     13.8600     0.0310    23.7710 H     1 LIG   0.0000 
 38 H35     12.5250    -1.7820    22.9670 H     1 LIG   0.0000 
 39 H101     6.9890    -6.7200    27.0200 H     1 LIG   0.0000 
 40 H102     8.2840    -6.5560    28.0020 H     1 LIG   0.0000 
 41 H131     8.9680    -4.6340    26.8160 H     1 LIG   0.0000 
 42 H132     8.8070    -5.8800    25.7720 H     1 LIG   0.0000 
 43 H16      6.7120    -5.1130    25.1640 H     1 LIG   0.0000 
 44 H23     10.4340    -2.1060    20.7680 H     1 LIG   0.0000 
 45 H471     5.9000    -3.0900    25.9360 H     1 LIG   0.0000 
 46 H472     7.1960    -2.9350    26.9170 H     1 LIG   0.0000 
 47 H501     5.3720    -3.7700    28.1620 H     1 LIG   0.0000 
 48 H502     5.2080    -5.0140    27.1170 H     1 LIG   0.0000 
 49 H11      2.4860    -6.6580    29.4250 H     1 LIG   0.0000 
 50 H12      3.8250    -7.7510    29.5250 H     1 LIG   0.0000 
 51 H4       3.9380    -4.8750    29.4630 H     1 LIG   0.0000 
 52 H24      8.2000    -0.8950    20.3630 H     1 LIG   0.0000 
 53 H421     4.4230    -2.1450    23.2900 H     1 LIG   0.0000 
 54 H422     3.9200    -3.3460    24.2760 H     1 LIG   0.0000 
@<TRIPOS>BOND
  1   1   2  2   
  2   1  49  1   
  3   1  50  1   
  4   2   3  1   
  5   2  51  1   
  6   3   4  2   
  7   3   5  2   
  8   3   6  am  
  9   6   7  1   
 10   6  31  1   
 11   7   8  1   
 12   7  39  1   
 13   7  40  1   
 14   8   9  1   
 15   8  41  1   
 16   8  42  1   
 17   9  10  1   
 18   9  30  1   
 19   9  43  1   
 20  10  11  ar  
 21  10  25  ar  
 22  11  12  ar  
 23  11  32  1   
 24  12  13  ar  
 25  12  33  1   
 26  13  14  1   
 27  13  24  ar  
 28  14  15  1   
 29  14  23  1   
 30  14  44  1   
 31  15  16  am  
 32  15  52  1   
 33  16  17  2   
 34  16  18  1   
 35  18  19  ar  
 36  18  23  ar  
 37  19  20  ar  
 38  19  35  1   
 39  20  21  ar  
 40  20  36  1   
 41  21  22  ar  
 42  21  37  1   
 43  22  23  ar  
 44  22  38  1   
 45  24  25  ar  
 46  24  34  1   
 47  25  26  1   
 48  26  27  am  
 49  26  28  2   
 50  26  29  2   
 51  27  53  1   
 52  27  54  1   
 53  30  31  1   
 54  30  45  1   
 55  30  46  1   
 56  31  47  1   
 57  31  48  1   
@<TRIPOS>SUBSTRUCTURE
  1 LIG  10 GROUP 4 **** **** 0
@<TRIPOS>PROPERTY_DATA
index	|	ligand172
Name	|	DR -UNK-dd7-3
ChemPlp	|	-91.5371
MM-GBSA Nwat=0	|	43.9114
STDEV0	|	5.0733
MM-GBSA Nwat=30	|	19.914
STDEV30	|	15.7028
MM-GBSA Nwat=60	|	-25.3615
STDEV60	|	14.5384
ST.DEV < 10%	|	N
RMSD LIG < 2	|	
DIST < 5	|	
DIST < 3.5	|	N

# MOE 2019.01 (io_trps.svl 2018.10)

@<TRIPOS>MOLECULE
ligand167
74 77 1 0 0 
SMALL
NO_CHARGES


@<TRIPOS>ATOM
  1 C1       1.2510     7.5180    19.1580 C.3   1 LIG   0.0000 
  2 C5       2.0640     6.9040    20.2860 C.3   1 LIG   0.0000 
  3 N6       3.4020     7.5120    20.3130 N.3   1 LIG   0.0000 
  4 N9       2.1890     5.4560    20.0680 N.3   1 LIG   0.0000 
  5 C11      1.6770     4.7370    21.2440 C.3   1 LIG   0.0000 
  6 C12      0.4560     3.9240    20.8490 C.3   1 LIG   0.0000 
  7 C15      0.8720     2.8150    19.8960 C.2   1 LIG   0.0000 
  8 N16      1.4520     3.1280    18.6940 N.am  1 LIG   0.0000 
  9 O19      0.6930     1.6670    20.1950 O.2   1 LIG   0.0000 
 10 C20      2.7550     3.8080    21.7780 C.2   1 LIG   0.0000 
 11 O21      2.4890     3.0100    22.6340 O.2   1 LIG   0.0000 
 12 N22      4.0300     3.8800    21.2820 N.am  1 LIG   0.0000 
 13 C24      5.0720     2.9810    21.7980 C.3   1 LIG   0.0000 
 14 C25      6.2610     3.8340    22.2150 C.3   1 LIG   0.0000 
 15 C28      7.4340     2.9700    22.6530 C.3   1 LIG   0.0000 
 16 C31      7.8890     2.1640    21.4440 C.3   1 LIG   0.0000 
 17 C32      9.0600     1.2720    21.8150 C.2   1 LIG   0.0000 
 18 N33      9.0250     0.0420    22.2760 N.2   1 LIG   0.0000 
 19 C34     10.2440    -0.5440    22.5390 C.ar  1 LIG   0.0000 
 20 C35     10.6190    -1.7940    23.0190 C.ar  1 LIG   0.0000 
 21 C36      9.6220    -2.7920    23.3580 C.ar  1 LIG   0.0000 
 22 C37      9.9520    -3.8260    24.2280 C.ar  1 LIG   0.0000 
 23 C39      8.9910    -4.7800    24.5480 C.ar  1 LIG   0.0000 
 24 C41      7.7150    -4.6940    24.0000 C.ar  1 LIG   0.0000 
 25 O42      6.7850    -5.6200    24.3110 O.3   1 LIG   0.0000 
 26 C44      7.3970    -3.6550    23.1310 C.ar  1 LIG   0.0000 
 27 S45      5.8000    -3.5540    22.4480 S.o2  1 LIG   0.0000 
 28 N46      5.5000    -2.0170    21.9930 N.am  1 LIG   0.0000 
 29 O49      5.7130    -4.4200    21.3010 O.2   1 LIG   0.0000 
 30 O50      4.8300    -3.9610    23.4320 O.2   1 LIG   0.0000 
 31 C51      8.3500    -2.6960    22.8040 C.ar  1 LIG   0.0000 
 32 C53     11.9560    -2.1390    23.1950 C.ar  1 LIG   0.0000 
 33 C55     12.9740    -1.2390    22.8930 C.ar  1 LIG   0.0000 
 34 C57     12.6710     0.0210    22.4080 C.ar  1 LIG   0.0000 
 35 C59     11.3180     0.2740    22.2660 C.ar  1 LIG   0.0000 
 36 S60     10.6880     1.7420    21.6950 S.3   1 LIG   0.0000 
 37 C61      6.7850     1.2770    20.8830 C.3   1 LIG   0.0000 
 38 N64      5.4850     1.9650    20.8150 N.am  1 LIG   0.0000 
 39 C65      4.6070     1.6400    19.7740 C.2   1 LIG   0.0000 
 40 O66      3.5410     2.1850    19.6940 O.2   1 LIG   0.0000 
 41 C67      5.0050     0.5950    18.7440 C.3   1 LIG   0.0000 
 42 CL70     6.6260     0.9720    18.1120 Cl    1 LIG   0.0000 
 43 H53     12.1880    -3.0460    23.5440 H     1 LIG   0.0000 
 44 H55     13.9280    -1.5040    23.0260 H     1 LIG   0.0000 
 45 H57     13.3730     0.6950    22.1780 H     1 LIG   0.0000 
 46 H37     10.8710    -3.8840    24.6190 H     1 LIG   0.0000 
 47 H39      9.2170    -5.5280    25.1720 H     1 LIG   0.0000 
 48 H51      8.1240    -1.9490    22.1790 H     1 LIG   0.0000 
 49 H11      1.1670     8.5040    19.3070 H     1 LIG   0.0000 
 50 H12      1.7110     7.3510    18.2860 H     1 LIG   0.0000 
 51 H13      0.3410     7.1050    19.1400 H     1 LIG   0.0000 
 52 H5       1.6040     7.0720    21.1580 H     1 LIG   0.0000 
 53 H11      1.4240     5.3960    21.9530 H     1 LIG   0.0000 
 54 H121     0.0440     3.5220    21.6670 H     1 LIG   0.0000 
 55 H122    -0.2100     4.5190    20.3980 H     1 LIG   0.0000 
 56 H24      4.7160     2.5140    22.6080 H     1 LIG   0.0000 
 57 H251     5.9890     4.4240    22.9750 H     1 LIG   0.0000 
 58 H252     6.5440     4.3990    21.4400 H     1 LIG   0.0000 
 59 H281     8.1810     3.5490    22.9780 H     1 LIG   0.0000 
 60 H282     7.1480     2.3530    23.3860 H     1 LIG   0.0000 
 61 H31      8.1840     2.7980    20.7300 H     1 LIG   0.0000 
 62 H611     7.0430     0.9890    19.9610 H     1 LIG   0.0000 
 63 H612     6.6920     0.4720    21.4700 H     1 LIG   0.0000 
 64 H671     5.0150    -0.3080    19.1720 H     1 LIG   0.0000 
 65 H672     4.3450     0.6000    17.9920 H     1 LIG   0.0000 
 66 H61      3.3180     8.4980    20.4620 H     1 LIG   0.0000 
 67 H62      3.9370     7.1080    21.0550 H     1 LIG   0.0000 
 68 H9       3.1510     5.2220    19.9260 H     1 LIG   0.0000 
 69 H161     1.6010     4.0840    18.4450 H     1 LIG   0.0000 
 70 H162     1.7260     2.3980    18.0670 H     1 LIG   0.0000 
 71 H22      4.2520     4.5450    20.5690 H     1 LIG   0.0000 
 72 H461     5.3250    -1.9900    21.0090 H     1 LIG   0.0000 
 73 H462     4.7000    -1.6740    22.4840 H     1 LIG   0.0000 
 74 H42      6.3780    -5.6330    25.2240 H     1 LIG   0.0000 
@<TRIPOS>BOND
  1   1   2  1   
  2   1  49  1   
  3   1  50  1   
  4   1  51  1   
  5   2   3  1   
  6   2   4  1   
  7   2  52  1   
  8   3  66  1   
  9   3  67  1   
 10   4   5  1   
 11   4  68  1   
 12   5   6  1   
 13   5  10  1   
 14   5  53  1   
 15   6   7  1   
 16   6  54  1   
 17   6  55  1   
 18   7   8  am  
 19   7   9  2   
 20   8  69  1   
 21   8  70  1   
 22  10  11  2   
 23  10  12  am  
 24  12  13  1   
 25  12  71  1   
 26  13  14  1   
 27  13  38  1   
 28  13  56  1   
 29  14  15  1   
 30  14  57  1   
 31  14  58  1   
 32  15  16  1   
 33  15  59  1   
 34  15  60  1   
 35  16  17  1   
 36  16  37  1   
 37  16  61  1   
 38  17  18  2   
 39  17  36  1   
 40  18  19  1   
 41  19  20  ar  
 42  19  35  ar  
 43  20  21  1   
 44  20  32  ar  
 45  21  22  ar  
 46  21  31  ar  
 47  22  23  ar  
 48  22  46  1   
 49  23  24  ar  
 50  23  47  1   
 51  24  25  1   
 52  24  26  ar  
 53  25  74  1   
 54  26  27  1   
 55  26  31  ar  
 56  27  28  am  
 57  27  29  2   
 58  27  30  2   
 59  28  72  1   
 60  28  73  1   
 61  31  48  1   
 62  32  33  ar  
 63  32  43  1   
 64  33  34  ar  
 65  33  44  1   
 66  34  35  ar  
 67  34  45  1   
 68  35  36  1   
 69  37  38  1   
 70  37  62  1   
 71  37  63  1   
 72  38  39  am  
 73  39  40  2   
 74  39  41  1   
 75  41  42  1   
 76  41  64  1   
 77  41  65  1   
@<TRIPOS>SUBSTRUCTURE
  1 LIG  37 GROUP 4 **** **** 0
@<TRIPOS>PROPERTY_DATA
index	|	ligand167
Name	|	DAV-CRI-f9b-8
ChemPlp	|	-106.224
MM-GBSA Nwat=0	|	10.1568
STDEV0	|	6.839
MM-GBSA Nwat=30	|	23.3086
STDEV30	|	11.5908
MM-GBSA Nwat=60	|	-15.7121
STDEV60	|	11.0405
ST.DEV < 10%	|	N
RMSD LIG < 2	|	
DIST < 5	|	
DIST < 3.5	|	N

# MOE 2019.01 (io_trps.svl 2018.10)

@<TRIPOS>MOLECULE
ligand358
63 64 1 0 0 
SMALL
USER_CHARGES


@<TRIPOS>ATOM
  1 C1       6.6770    -4.1270    28.2680 C.3   1 LIG   0.0000 
  2 C5       7.4740    -4.5580    27.0470 C.ar  1 LIG   0.0000 
  3 C6       8.8580    -4.4210    27.0740 C.ar  1 LIG   0.0000 
  4 C8       9.6170    -4.8060    25.9740 C.ar  1 LIG   0.0000 
  5 C10      8.9920    -5.3280    24.8460 C.ar  1 LIG   0.0000 
  6 C12      7.6080    -5.4640    24.8180 C.ar  1 LIG   0.0000 
  7 C13      6.9610    -6.0380    23.5680 C.3   1 LIG   0.0000 
  8 N16      7.1680    -5.1160    22.4420 N.4   1 LIG   1.0000 
  9 C18      6.3910    -5.6420    21.3070 C.3   1 LIG   0.0000 
 10 C21      6.4900    -4.7410    20.0850 C.3   1 LIG   0.0000 
 11 N24      6.3120    -3.3250    20.4430 N.am  1 LIG   0.0000 
 12 C25      5.7020    -2.4730    19.5150 C.2   1 LIG   0.0000 
 13 O26      5.3380    -2.9030    18.4560 O.2   1 LIG   0.0000 
 14 C27      5.5010    -1.0040    19.8500 C.3   1 LIG   0.0000 
 15 CL30     5.8030    -0.0190    18.3980 Cl    1 LIG   0.0000 
 16 C31      6.7380    -2.7750    21.7410 C.3   1 LIG   0.0000 
 17 C34      6.6300    -3.8090    22.8520 C.3   1 LIG   0.0000 
 18 C37      6.8480    -5.0790    25.9180 C.ar  1 LIG   0.0000 
 19 C38      5.3350    -5.2290    25.8880 C.3   1 LIG   0.0000 
 20 C41      4.9700    -6.7030    25.9620 C.3   1 LIG   0.0000 
 21 N42      5.0810    -7.1650    27.3530 N.am  1 LIG   0.0000 
 22 C44      4.3740    -6.5350    28.3430 C.2   1 LIG   0.0000 
 23 O45      3.6640    -5.6060    28.0750 O.2   1 LIG   0.0000 
 24 C46      4.4890    -7.0130    29.7820 C.3   1 LIG   0.0000 
 25 S49      6.1810    -6.7560    30.3700 S.o2  1 LIG   0.0000 
 26 N50      7.2340    -7.1750    29.1970 N.am  1 LIG   0.0000 
 27 O53      6.3660    -5.3680    30.7070 O.2   1 LIG   0.0000 
 28 O54      6.4130    -7.5690    31.5350 O.2   1 LIG   0.0000 
 29 C55      3.5430    -6.8970    25.4760 C.3   1 LIG   0.0000 
 30 C56      3.4020    -6.3200    24.0770 C.3   1 LIG   0.0000 
 31 O60      3.2360    -8.2830    25.4500 O.3   1 LIG   0.0000 
 32 H6       9.3080    -4.0460    27.8850 H     1 LIG   0.0000 
 33 H8      10.6120    -4.7080    25.9940 H     1 LIG   0.0000 
 34 H10      9.5370    -5.6040    24.0540 H     1 LIG   0.0000 
 35 H11      7.3020    -3.7820    28.9690 H     1 LIG   0.0000 
 36 H12      6.0350    -3.4050    28.0090 H     1 LIG   0.0000 
 37 H13      6.1710    -4.9100    28.6290 H     1 LIG   0.0000 
 38 H131     7.3740    -6.9230    23.3550 H     1 LIG   0.0000 
 39 H132     5.9800    -6.1570    23.7250 H     1 LIG   0.0000 
 40 H16      8.1380    -5.0470    22.2100 H     1 LIG   0.0000 
 41 H181     5.4320    -5.7150    21.5780 H     1 LIG   0.0000 
 42 H182     6.7400    -6.5490    21.0680 H     1 LIG   0.0000 
 43 H211     7.3900    -4.8590    19.6660 H     1 LIG   0.0000 
 44 H212     5.7800    -5.0020    19.4310 H     1 LIG   0.0000 
 45 H271     4.5620    -0.8590    20.1620 H     1 LIG   0.0000 
 46 H272     6.1380    -0.7370    20.5730 H     1 LIG   0.0000 
 47 H311     6.1570    -1.9930    21.9680 H     1 LIG   0.0000 
 48 H312     7.6890    -2.4750    21.6690 H     1 LIG   0.0000 
 49 H341     7.1420    -3.4830    23.6470 H     1 LIG   0.0000 
 50 H342     5.6670    -3.9190    23.0990 H     1 LIG   0.0000 
 51 H381     4.9790    -4.8400    25.0380 H     1 LIG   0.0000 
 52 H382     4.9370    -4.7470    26.6680 H     1 LIG   0.0000 
 53 H41      5.5940    -7.2300    25.3850 H     1 LIG   0.0000 
 54 H461     3.8540    -6.4970    30.3560 H     1 LIG   0.0000 
 55 H462     4.2640    -7.9860    29.8280 H     1 LIG   0.0000 
 56 H55      2.9140    -6.4280    26.0960 H     1 LIG   0.0000 
 57 H561     3.6180    -5.3440    24.0960 H     1 LIG   0.0000 
 58 H562     4.0310    -6.7890    23.4580 H     1 LIG   0.0000 
 59 H563     2.4630    -6.4470    23.7580 H     1 LIG   0.0000 
 60 H42      5.6730    -7.9400    27.5770 H     1 LIG   0.0000 
 61 H501     6.8300    -7.8910    28.6270 H     1 LIG   0.0000 
 62 H502     7.4390    -6.3750    28.6320 H     1 LIG   0.0000 
 63 H60      3.2060    -8.6350    26.3860 H     1 LIG   0.0000 
@<TRIPOS>BOND
  1   1   2  1   
  2   1  35  1   
  3   1  36  1   
  4   1  37  1   
  5   2   3  ar  
  6   2  18  ar  
  7   3   4  ar  
  8   3  32  1   
  9   4   5  ar  
 10   4  33  1   
 11   5   6  ar  
 12   5  34  1   
 13   6   7  1   
 14   6  18  ar  
 15   7   8  1   
 16   7  38  1   
 17   7  39  1   
 18   8   9  1   
 19   8  17  1   
 20   8  40  1   
 21   9  10  1   
 22   9  41  1   
 23   9  42  1   
 24  10  11  1   
 25  10  43  1   
 26  10  44  1   
 27  11  12  am  
 28  11  16  1   
 29  12  13  2   
 30  12  14  1   
 31  14  15  1   
 32  14  45  1   
 33  14  46  1   
 34  16  17  1   
 35  16  47  1   
 36  16  48  1   
 37  17  49  1   
 38  17  50  1   
 39  18  19  1   
 40  19  20  1   
 41  19  51  1   
 42  19  52  1   
 43  20  21  1   
 44  20  29  1   
 45  20  53  1   
 46  21  22  am  
 47  21  60  1   
 48  22  23  2   
 49  22  24  1   
 50  24  25  1   
 51  24  54  1   
 52  24  55  1   
 53  25  26  am  
 54  25  27  2   
 55  25  28  2   
 56  26  61  1   
 57  26  62  1   
 58  29  30  1   
 59  29  31  1   
 60  29  56  1   
 61  30  57  1   
 62  30  58  1   
 63  30  59  1   
 64  31  63  1   
@<TRIPOS>SUBSTRUCTURE
  1 LIG  18 GROUP 4 **** **** 0
@<TRIPOS>PROPERTY_DATA
index	|	ligand358
Name	|	MAK-UNK-af8-15
ChemPlp	|	-102.718
MM-GBSA Nwat=0	|	10.7689
STDEV0	|	5.0827
MM-GBSA Nwat=30	|	23.3569
STDEV30	|	8.4679
MM-GBSA Nwat=60	|	8.8453
STDEV60	|	9.2778
ST.DEV < 10%	|	N
RMSD LIG < 2	|	
DIST < 5	|	
DIST < 3.5	|	N

# MOE 2019.01 (io_trps.svl 2018.10)

@<TRIPOS>MOLECULE
ligand392
88 94 1 0 0 
SMALL
USER_CHARGES


@<TRIPOS>ATOM
  1 O1       6.5040    -6.1780    27.2190 O.2   1 LIG   0.0000 
  2 C2       7.2410    -5.3360    26.7840 C.2   1 LIG   0.0000 
  3 C3       8.5000    -4.9590    27.5470 C.3   1 LIG   0.0000 
  4 CL6      9.9020    -5.0310    26.4520 Cl    1 LIG   0.0000 
  5 N7       6.9400    -4.7020    25.5720 N.am  1 LIG   0.0000 
  6 C8       7.8580    -3.6730    25.0560 C.3   1 LIG   0.0000 
  7 C11      7.8900    -3.6540    23.5350 C.3   1 LIG   0.0000 
  8 N14      6.5440    -3.7440    22.9450 N.am  1 LIG   0.0000 
  9 S15      6.7560    -3.7940    21.1990 S.o2  1 LIG   0.0000 
 10 O16      5.6520    -4.4990    20.6010 O.2   1 LIG   0.0000 
 11 O17      7.9870    -4.4720    20.8840 O.2   1 LIG   0.0000 
 12 C18      6.8130    -2.1700    20.5750 C.2   1 LIG   0.0000 
 13 C19      7.8780    -1.3180    20.5580 C.2   1 LIG   0.0000 
 14 C21      7.5730    -0.0640    19.9670 C.2   1 LIG   0.0000 
 15 C23      6.2900     0.0830    19.5260 C.2   1 LIG   0.0000 
 16 C24      5.6900     1.3110    18.8620 C.3   1 LIG   0.0000 
 17 N27      5.2170     2.2480    19.8990 N.4   1 LIG   1.0000 
 18 C28      3.9510     1.7760    20.4800 C.3   1 LIG   0.0000 
 19 C31      3.4480     2.7570    21.5260 C.3   1 LIG   0.0000 
 20 N34      4.4570     2.9510    22.5780 N.am  1 LIG   0.0000 
 21 S35      3.8910     4.0660    23.8160 S.o2  1 LIG   0.0000 
 22 O36      3.9920     5.4170    23.3290 O.2   1 LIG   0.0000 
 23 O37      2.5180     3.7720    24.1350 O.2   1 LIG   0.0000 
 24 C38      4.8680     3.8900    25.2460 C.ar  1 LIG   0.0000 
 25 C39      4.3160     3.2160    26.3300 C.ar  1 LIG   0.0000 
 26 C41      5.0560     3.0480    27.4960 C.ar  1 LIG   0.0000 
 27 C43      6.3500     3.5470    27.5950 C.ar  1 LIG   0.0000 
 28 C45      6.8990     4.2210    26.5080 C.ar  1 LIG   0.0000 
 29 C46      8.1940     4.7150    26.6220 C.ar  1 LIG   0.0000 
 30 C48      8.7650     5.3910    25.5480 C.ar  1 LIG   0.0000 
 31 C49     10.1820     5.9220    25.6950 C.3   1 LIG   0.0000 
 32 C52     11.1380     5.0340    24.9200 C.2   1 LIG   0.0000 
 33 C53     12.2410     5.4320    24.2230 C.2   1 LIG   0.0000 
 34 C55     12.9720     4.3910    23.5910 C.2   1 LIG   0.0000 
 35 C57     12.4250     3.1600    23.7940 C.2   1 LIG   0.0000 
 36 CL58    12.9960     1.5850    23.1950 Cl    1 LIG   0.0000 
 37 S59     11.0310     3.3420    24.7560 S.3   1 LIG   0.0000 
 38 C60      8.0520     5.5760    24.3680 C.ar  1 LIG   0.0000 
 39 C61      8.6460     6.3110    23.1770 C.3   1 LIG   0.0000 
 40 C64      7.5690     7.1540    22.5140 C.2   1 LIG   0.0000 
 41 C65      7.0700     6.9740    21.1960 C.2   1 LIG   0.0000 
 42 C67      6.1020     7.8440    20.7940 C.2   1 LIG   0.0000 
 43 S69      5.8600     8.8650    22.1390 S.3   1 LIG   0.0000 
 44 C70      6.9960     8.1800    23.2060 C.2   1 LIG   0.0000 
 45 C72      6.7590     5.0740    24.2790 C.ar  1 LIG   0.0000 
 46 C74      6.1650     4.3930    25.3380 C.ar  1 LIG   0.0000 
 47 C75      5.7250     3.4190    21.9970 C.3   1 LIG   0.0000 
 48 C78      6.2260     2.4350    20.9520 C.3   1 LIG   0.0000 
 49 S81      5.4880    -1.3810    19.8610 S.3   1 LIG   0.0000 
 50 C82      5.9010    -5.0050    23.3490 C.3   1 LIG   0.0000 
 51 C85      5.7170    -5.1010    24.8570 C.3   1 LIG   0.0000 
 52 H19      8.7800    -1.5510    20.9240 H     1 LIG   0.0000 
 53 H21      8.2540     0.6640    19.8800 H     1 LIG   0.0000 
 54 H39      3.3860     2.8520    26.2710 H     1 LIG   0.0000 
 55 H41      4.6530     2.5630    28.2710 H     1 LIG   0.0000 
 56 H43      6.8790     3.4240    28.4350 H     1 LIG   0.0000 
 57 H46      8.7110     4.5850    27.4680 H     1 LIG   0.0000 
 58 H72      6.2420     5.2040    23.4320 H     1 LIG   0.0000 
 59 H53     12.5170     6.3920    24.1620 H     1 LIG   0.0000 
 60 H55     13.8010     4.5450    23.0530 H     1 LIG   0.0000 
 61 H65      7.4110     6.2490    20.5970 H     1 LIG   0.0000 
 62 H67      5.6380     7.8770    19.9090 H     1 LIG   0.0000 
 63 H70      7.2000     8.4690    24.1410 H     1 LIG   0.0000 
 64 H31      8.4060    -4.0310    27.9070 H     1 LIG   0.0000 
 65 H32      8.6350    -5.5980    28.3040 H     1 LIG   0.0000 
 66 H81      8.7790    -3.8610    25.3970 H     1 LIG   0.0000 
 67 H82      7.5570    -2.7780    25.3850 H     1 LIG   0.0000 
 68 H111     8.3170    -2.8020    23.2330 H     1 LIG   0.0000 
 69 H112     8.4330    -4.4310    23.2160 H     1 LIG   0.0000 
 70 H241     6.3840     1.7590    18.3000 H     1 LIG   0.0000 
 71 H242     4.9200     1.0360    18.2860 H     1 LIG   0.0000 
 72 H27      5.0500     3.1340    19.4660 H     1 LIG   0.0000 
 73 H281     4.0980     0.8840    20.9080 H     1 LIG   0.0000 
 74 H282     3.2680     1.6890    19.7550 H     1 LIG   0.0000 
 75 H311     3.2560     3.6360    21.0880 H     1 LIG   0.0000 
 76 H312     2.6090     2.3990    21.9370 H     1 LIG   0.0000 
 77 H491    10.4380     5.9260    26.6610 H     1 LIG   0.0000 
 78 H492    10.2270     6.8540    25.3350 H     1 LIG   0.0000 
 79 H611     9.0010     5.6470    22.5190 H     1 LIG   0.0000 
 80 H612     9.3890     6.9030    23.4870 H     1 LIG   0.0000 
 81 H751     6.4070     3.5040    22.7220 H     1 LIG   0.0000 
 82 H752     5.5810     4.3100    21.5680 H     1 LIG   0.0000 
 83 H781     7.0670     2.7880    20.5430 H     1 LIG   0.0000 
 84 H782     6.4120     1.5550    21.3900 H     1 LIG   0.0000 
 85 H821     6.4700    -5.7680    23.0450 H     1 LIG   0.0000 
 86 H822     5.0030    -5.0630    22.9120 H     1 LIG   0.0000 
 87 H851     4.9680    -4.4990    25.1330 H     1 LIG   0.0000 
 88 H852     5.4920    -6.0450    25.0980 H     1 LIG   0.0000 
@<TRIPOS>BOND
  1   1   2  2   
  2   2   3  1   
  3   2   5  am  
  4   3   4  1   
  5   3  64  1   
  6   3  65  1   
  7   5   6  1   
  8   5  51  1   
  9   6   7  1   
 10   6  66  1   
 11   6  67  1   
 12   7   8  1   
 13   7  68  1   
 14   7  69  1   
 15   8   9  am  
 16   8  50  1   
 17   9  10  2   
 18   9  11  2   
 19   9  12  1   
 20  12  13  2   
 21  12  49  1   
 22  13  14  1   
 23  13  52  1   
 24  14  15  2   
 25  14  53  1   
 26  15  16  1   
 27  15  49  1   
 28  16  17  1   
 29  16  70  1   
 30  16  71  1   
 31  17  18  1   
 32  17  48  1   
 33  17  72  1   
 34  18  19  1   
 35  18  73  1   
 36  18  74  1   
 37  19  20  1   
 38  19  75  1   
 39  19  76  1   
 40  20  21  am  
 41  20  47  1   
 42  21  22  2   
 43  21  23  2   
 44  21  24  1   
 45  24  25  ar  
 46  24  46  ar  
 47  25  26  ar  
 48  25  54  1   
 49  26  27  ar  
 50  26  55  1   
 51  27  28  ar  
 52  27  56  1   
 53  28  29  ar  
 54  28  46  ar  
 55  29  30  ar  
 56  29  57  1   
 57  30  31  1   
 58  30  38  ar  
 59  31  32  1   
 60  31  77  1   
 61  31  78  1   
 62  32  33  2   
 63  32  37  1   
 64  33  34  1   
 65  33  59  1   
 66  34  35  2   
 67  34  60  1   
 68  35  36  1   
 69  35  37  1   
 70  38  39  1   
 71  38  45  ar  
 72  39  40  1   
 73  39  79  1   
 74  39  80  1   
 75  40  41  1   
 76  40  44  2   
 77  41  42  2   
 78  41  61  1   
 79  42  43  1   
 80  42  62  1   
 81  43  44  1   
 82  44  63  1   
 83  45  46  ar  
 84  45  58  1   
 85  47  48  1   
 86  47  81  1   
 87  47  82  1   
 88  48  83  1   
 89  48  84  1   
 90  50  51  1   
 91  50  85  1   
 92  50  86  1   
 93  51  87  1   
 94  51  88  1   
@<TRIPOS>SUBSTRUCTURE
  1 LIG  47 GROUP 4 **** **** 0
@<TRIPOS>PROPERTY_DATA
index	|	ligand392
Name	|	MAK-UNK-e05-4
ChemPlp	|	-115.073
MM-GBSA Nwat=0	|	5.0729
STDEV0	|	3.2784
MM-GBSA Nwat=30	|	23.3652
STDEV30	|	9.781
MM-GBSA Nwat=60	|	-24.2574
STDEV60	|	10.9424
ST.DEV < 10%	|	N
RMSD LIG < 2	|	
DIST < 5	|	
DIST < 3.5	|	N

# MOE 2019.01 (io_trps.svl 2018.10)

@<TRIPOS>MOLECULE
ligand389
91 97 1 0 0 
SMALL
USER_CHARGES


@<TRIPOS>ATOM
  1 O1       6.4600    -6.1450    27.2280 O.2   1 LIG   0.0000 
  2 C2       7.2210    -5.3320    26.7800 C.2   1 LIG   0.0000 
  3 C3       8.5000    -4.9960    27.5280 C.3   1 LIG   0.0000 
  4 CL6      9.8750    -5.0330    26.3980 Cl    1 LIG   0.0000 
  5 N7       6.9290    -4.6940    25.5680 N.am  1 LIG   0.0000 
  6 C8       7.8770    -3.7010    25.0370 C.3   1 LIG   0.0000 
  7 C11      7.8940    -3.6910    23.5160 C.3   1 LIG   0.0000 
  8 N14      6.5390    -3.7370    22.9410 N.am  1 LIG   0.0000 
  9 S15      6.7300    -3.8030    21.1920 S.o2  1 LIG   0.0000 
 10 O16      5.6070    -4.4910    20.6120 O.2   1 LIG   0.0000 
 11 O17      7.9440    -4.5070    20.8690 O.2   1 LIG   0.0000 
 12 C18      6.8120    -2.1850    20.5560 C.2   1 LIG   0.0000 
 13 C19      7.9020    -1.3670    20.4880 C.2   1 LIG   0.0000 
 14 C21      7.6110    -0.1070    19.9030 C.2   1 LIG   0.0000 
 15 C23      6.3160     0.0790    19.5150 C.2   1 LIG   0.0000 
 16 C24      5.7260     1.3210    18.8700 C.3   1 LIG   0.0000 
 17 N27      5.2700     2.2510    19.9200 N.4   1 LIG   1.0000 
 18 C28      3.9980     1.7920    20.4970 C.3   1 LIG   0.0000 
 19 C31      3.5120     2.7670    21.5580 C.3   1 LIG   0.0000 
 20 N34      4.5270     2.9290    22.6100 N.am  1 LIG   0.0000 
 21 S35      3.9810     4.0350    23.8660 S.o2  1 LIG   0.0000 
 22 O36      3.8760     5.3640    23.3220 O.2   1 LIG   0.0000 
 23 O37      2.6930     3.6120    24.3520 O.2   1 LIG   0.0000 
 24 C38      5.1250     4.0340    25.1780 C.ar  1 LIG   0.0000 
 25 C39      4.8020     3.3080    26.3190 C.ar  1 LIG   0.0000 
 26 C41      5.6820     3.2740    27.3950 C.ar  1 LIG   0.0000 
 27 C43      6.8910     3.9620    27.3480 C.ar  1 LIG   0.0000 
 28 C45      7.2100     4.6870    26.2040 C.ar  1 LIG   0.0000 
 29 C46      8.4220     5.3690    26.1710 C.ar  1 LIG   0.0000 
 30 C48      8.7630     6.1010    25.0380 C.ar  1 LIG   0.0000 
 31 C49     10.0920     6.8390    25.0230 C.3   1 LIG   0.0000 
 32 C52     11.1910     5.9140    25.5220 C.3   1 LIG   0.0000 
 33 C55     11.4510     4.8340    24.4880 C.2   1 LIG   0.0000 
 34 C56     12.6130     4.6180    23.8070 C.2   1 LIG   0.0000 
 35 C58     12.5930     3.5270    22.8960 C.2   1 LIG   0.0000 
 36 C60     11.3900     2.8870    22.8630 C.2   1 LIG   0.0000 
 37 CL61    10.9130     1.4840    21.8780 Cl    1 LIG   0.0000 
 38 S62     10.3370     3.6590    23.9570 S.3   1 LIG   0.0000 
 39 C63      7.9050     6.1560    23.9440 C.ar  1 LIG   0.0000 
 40 C64      8.2480     6.9460    22.6920 C.3   1 LIG   0.0000 
 41 C67      7.0120     7.6900    22.2080 C.2   1 LIG   0.0000 
 42 C68      6.4010     7.5680    20.9980 C.2   1 LIG   0.0000 
 43 C70      5.2580     8.4040    20.8640 C.2   1 LIG   0.0000 
 44 C72      4.9510     9.1890    21.9350 C.2   1 LIG   0.0000 
 45 S74      6.1410     8.8450    23.1030 S.3   1 LIG   0.0000 
 46 C75      6.7000     5.4650    24.0010 C.ar  1 LIG   0.0000 
 47 C77      6.3340     4.7250    25.1220 C.ar  1 LIG   0.0000 
 48 C78      5.8010     3.3840    22.0340 C.3   1 LIG   0.0000 
 49 C81      6.2840     2.4060    20.9740 C.3   1 LIG   0.0000 
 50 S84      5.4820    -1.3580    19.8950 S.3   1 LIG   0.0000 
 51 C85      5.8560    -4.9720    23.3580 C.3   1 LIG   0.0000 
 52 C88      5.6850    -5.0540    24.8680 C.3   1 LIG   0.0000 
 53 H19      8.8100    -1.6270    20.8170 H     1 LIG   0.0000 
 54 H21      8.3100     0.5980    19.7820 H     1 LIG   0.0000 
 55 H39      3.9360     2.8090    26.3660 H     1 LIG   0.0000 
 56 H41      5.4440     2.7500    28.2120 H     1 LIG   0.0000 
 57 H43      7.5210     3.9350    28.1240 H     1 LIG   0.0000 
 58 H46      9.0420     5.3340    26.9540 H     1 LIG   0.0000 
 59 H75      6.0800     5.5020    23.2180 H     1 LIG   0.0000 
 60 H56     13.4240     5.1870    23.9400 H     1 LIG   0.0000 
 61 H58     13.3780     3.2590    22.3370 H     1 LIG   0.0000 
 62 H68      6.7230     6.9540    20.2770 H     1 LIG   0.0000 
 63 H70      4.7090     8.4160    20.0280 H     1 LIG   0.0000 
 64 H72      4.1880     9.8310    22.0170 H     1 LIG   0.0000 
 65 H31      8.4220    -4.0820    27.9280 H     1 LIG   0.0000 
 66 H32      8.6480    -5.6660    28.2550 H     1 LIG   0.0000 
 67 H81      8.7950    -3.9190    25.3700 H     1 LIG   0.0000 
 68 H82      7.6110    -2.7940    25.3640 H     1 LIG   0.0000 
 69 H111     8.3470    -2.8560    23.2040 H     1 LIG   0.0000 
 70 H112     8.4060    -4.4880    23.1950 H     1 LIG   0.0000 
 71 H241     6.4230     1.7680    18.3090 H     1 LIG   0.0000 
 72 H242     4.9500     1.0620    18.2950 H     1 LIG   0.0000 
 73 H27      5.1170     3.1460    19.5000 H     1 LIG   0.0000 
 74 H281     4.1310     0.8920    20.9130 H     1 LIG   0.0000 
 75 H282     3.3120     1.7260    19.7720 H     1 LIG   0.0000 
 76 H311     3.3340     3.6540    21.1330 H     1 LIG   0.0000 
 77 H312     2.6690     2.4170    21.9650 H     1 LIG   0.0000 
 78 H491    10.0350     7.6400    25.6190 H     1 LIG   0.0000 
 79 H492    10.3010     7.1310    24.0900 H     1 LIG   0.0000 
 80 H521    12.0270     6.4410    25.6720 H     1 LIG   0.0000 
 81 H522    10.9050     5.4910    26.3820 H     1 LIG   0.0000 
 82 H641     8.5610     6.3200    21.9780 H     1 LIG   0.0000 
 83 H642     8.9720     7.6030    22.9000 H     1 LIG   0.0000 
 84 H781     6.4860     3.4480    22.7600 H     1 LIG   0.0000 
 85 H782     5.6710     4.2840    21.6180 H     1 LIG   0.0000 
 86 H811     7.1300     2.7520    20.5690 H     1 LIG   0.0000 
 87 H812     6.4560     1.5180    21.4000 H     1 LIG   0.0000 
 88 H851     6.3950    -5.7560    23.0530 H     1 LIG   0.0000 
 89 H852     4.9530    -5.0010    22.9300 H     1 LIG   0.0000 
 90 H881     4.9600    -4.4240    25.1490 H     1 LIG   0.0000 
 91 H882     5.4300    -5.9880    25.1170 H     1 LIG   0.0000 
@<TRIPOS>BOND
  1   1   2  2   
  2   2   3  1   
  3   2   5  am  
  4   3   4  1   
  5   3  65  1   
  6   3  66  1   
  7   5   6  1   
  8   5  52  1   
  9   6   7  1   
 10   6  67  1   
 11   6  68  1   
 12   7   8  1   
 13   7  69  1   
 14   7  70  1   
 15   8   9  am  
 16   8  51  1   
 17   9  10  2   
 18   9  11  2   
 19   9  12  1   
 20  12  13  2   
 21  12  50  1   
 22  13  14  1   
 23  13  53  1   
 24  14  15  2   
 25  14  54  1   
 26  15  16  1   
 27  15  50  1   
 28  16  17  1   
 29  16  71  1   
 30  16  72  1   
 31  17  18  1   
 32  17  49  1   
 33  17  73  1   
 34  18  19  1   
 35  18  74  1   
 36  18  75  1   
 37  19  20  1   
 38  19  76  1   
 39  19  77  1   
 40  20  21  am  
 41  20  48  1   
 42  21  22  2   
 43  21  23  2   
 44  21  24  1   
 45  24  25  ar  
 46  24  47  ar  
 47  25  26  ar  
 48  25  55  1   
 49  26  27  ar  
 50  26  56  1   
 51  27  28  ar  
 52  27  57  1   
 53  28  29  ar  
 54  28  47  ar  
 55  29  30  ar  
 56  29  58  1   
 57  30  31  1   
 58  30  39  ar  
 59  31  32  1   
 60  31  78  1   
 61  31  79  1   
 62  32  33  1   
 63  32  80  1   
 64  32  81  1   
 65  33  34  2   
 66  33  38  1   
 67  34  35  1   
 68  34  60  1   
 69  35  36  2   
 70  35  61  1   
 71  36  37  1   
 72  36  38  1   
 73  39  40  1   
 74  39  46  ar  
 75  40  41  1   
 76  40  82  1   
 77  40  83  1   
 78  41  42  2   
 79  41  45  1   
 80  42  43  1   
 81  42  62  1   
 82  43  44  2   
 83  43  63  1   
 84  44  45  1   
 85  44  64  1   
 86  46  47  ar  
 87  46  59  1   
 88  48  49  1   
 89  48  84  1   
 90  48  85  1   
 91  49  86  1   
 92  49  87  1   
 93  51  52  1   
 94  51  88  1   
 95  51  89  1   
 96  52  90  1   
 97  52  91  1   
@<TRIPOS>SUBSTRUCTURE
  1 LIG  48 GROUP 4 **** **** 0
@<TRIPOS>PROPERTY_DATA
index	|	ligand389
Name	|	MAK-UNK-e05-1
ChemPlp	|	-115.88
MM-GBSA Nwat=0	|	18.3984
STDEV0	|	7.1752
MM-GBSA Nwat=30	|	23.844
STDEV30	|	20.4549
MM-GBSA Nwat=60	|	-33.1117
STDEV60	|	18.9934
ST.DEV < 10%	|	N
RMSD LIG < 2	|	
DIST < 5	|	
DIST < 3.5	|	N

# MOE 2019.01 (io_trps.svl 2018.10)

@<TRIPOS>MOLECULE
ligand519
69 72 1 0 0 
SMALL
NO_CHARGES


@<TRIPOS>ATOM
  1 O1       5.6800    -3.5140    20.0380 O.2   1 LIG   0.0000 
  2 C2       5.8010    -2.3320    20.2040 C.2   1 LIG   0.0000 
  3 C3       5.6540    -1.3800    19.0280 C.3   1 LIG   0.0000 
  4 CL6      7.0200    -0.2390    19.0140 Cl    1 LIG   0.0000 
  5 N7       6.0760    -1.8290    21.4800 N.am  1 LIG   0.0000 
  6 C8       6.2140    -2.7690    22.6050 C.3   1 LIG   0.0000 
  7 C11      7.2150    -2.2730    23.6380 C.3   1 LIG   0.0000 
  8 N14      7.0400    -0.8430    23.9450 N.am  1 LIG   0.0000 
  9 S15      8.3120    -0.4080    25.0810 S.o2  1 LIG   0.0000 
 10 O16      8.2780    -1.3060    26.2060 O.2   1 LIG   0.0000 
 11 O17      8.1060     0.9420    25.5380 O.2   1 LIG   0.0000 
 12 C18      9.8590    -0.5230    24.2930 C.ar  1 LIG   0.0000 
 13 C19     10.1800    -1.6660    23.5670 C.ar  1 LIG   0.0000 
 14 C21     11.4190    -1.7510    22.9400 C.ar  1 LIG   0.0000 
 15 C23     12.3240    -0.7000    23.0410 C.ar  1 LIG   0.0000 
 16 CL24    13.9020    -0.8320    22.2300 Cl    1 LIG   0.0000 
 17 C25     11.9950     0.4400    23.7690 C.ar  1 LIG   0.0000 
 18 C26     12.9880     1.5860    23.8760 C.3   1 LIG   0.0000 
 19 C29     12.3490     2.8600    23.3480 C.3   1 LIG   0.0000 
 20 C30     11.4790     3.4480    24.4480 C.3   1 LIG   0.0000 
 21 N33     11.0460     4.8090    24.0990 N.am  1 LIG   0.0000 
 22 C34      9.7930     5.2650    24.5290 C.2   1 LIG   0.0000 
 23 O35      9.0830     4.5470    25.1770 O.2   1 LIG   0.0000 
 24 N36      9.3780     6.5310    24.2100 N.am  1 LIG   0.0000 
 25 C38      8.0640     7.0100    24.6620 C.3   1 LIG   0.0000 
 26 C41      7.2890     7.5580    23.4740 C.ar  1 LIG   0.0000 
 27 C42      7.3710     6.9060    22.2490 C.ar  1 LIG   0.0000 
 28 C44      6.6610     7.4090    21.1630 C.ar  1 LIG   0.0000 
 29 C46      5.8820     8.5520    21.3120 C.ar  1 LIG   0.0000 
 30 N47      5.1680     9.0560    20.2190 N.pl3 1 LIG   0.0000 
 31 O48      4.5260    10.0760    20.3330 O.2   1 LIG   0.0000 
 32 O49      5.1930     8.4680    19.1500 O.2   1 LIG   0.0000 
 33 C50      5.8020     9.2020    22.5390 C.ar  1 LIG   0.0000 
 34 C52      6.5110     8.7010    23.6260 C.ar  1 LIG   0.0000 
 35 C54     11.8960     5.7070    23.3040 C.3   1 LIG   0.0000 
 36 C57     12.7350     4.9150    22.3130 C.3   1 LIG   0.0000 
 37 O60     13.3420     3.7880    22.9320 O.3   1 LIG   0.0000 
 38 C61     10.7580     0.5330    24.3990 C.ar  1 LIG   0.0000 
 39 C63      7.2400    -0.0400    22.7270 C.3   1 LIG   0.0000 
 40 C66      6.2260    -0.3740    21.6430 C.3   1 LIG   0.0000 
 41 H19      9.5260    -2.4200    23.4980 H     1 LIG   0.0000 
 42 H21     11.6590    -2.5680    22.4150 H     1 LIG   0.0000 
 43 H61     10.5180     1.3500    24.9230 H     1 LIG   0.0000 
 44 H42      7.9320     6.0840    22.1490 H     1 LIG   0.0000 
 45 H44      6.7110     6.9500    20.2760 H     1 LIG   0.0000 
 46 H50      5.2400    10.0230    22.6390 H     1 LIG   0.0000 
 47 H52      6.4610     9.1600    24.5130 H     1 LIG   0.0000 
 48 H31      5.6480    -1.9030    18.1750 H     1 LIG   0.0000 
 49 H32      4.7960    -0.8730    19.1140 H     1 LIG   0.0000 
 50 H81      6.5240    -3.6520    22.2520 H     1 LIG   0.0000 
 51 H82      5.3230    -2.8800    23.0450 H     1 LIG   0.0000 
 52 H111     7.0950    -2.7990    24.4800 H     1 LIG   0.0000 
 53 H112     8.1390    -2.4150    23.2850 H     1 LIG   0.0000 
 54 H261    13.8020     1.3730    23.3380 H     1 LIG   0.0000 
 55 H262    13.2450     1.7150    24.8340 H     1 LIG   0.0000 
 56 H29     11.7710     2.6320    22.5650 H     1 LIG   0.0000 
 57 H301    10.6740     2.8690    24.5740 H     1 LIG   0.0000 
 58 H302    12.0030     3.4780    25.3000 H     1 LIG   0.0000 
 59 H381     8.1880     7.7320    25.3420 H     1 LIG   0.0000 
 60 H382     7.5550     6.2520    25.0700 H     1 LIG   0.0000 
 61 H541    12.5030     6.2130    23.9160 H     1 LIG   0.0000 
 62 H542    11.3170     6.3500    22.8020 H     1 LIG   0.0000 
 63 H571    12.1480     4.6000    21.5680 H     1 LIG   0.0000 
 64 H572    13.4510     5.5090    21.9450 H     1 LIG   0.0000 
 65 H631     8.1590    -0.2150    22.3740 H     1 LIG   0.0000 
 66 H632     7.1520     0.9280    22.9630 H     1 LIG   0.0000 
 67 H661     5.3410     0.0190    21.8930 H     1 LIG   0.0000 
 68 H662     6.5330     0.0210    20.7770 H     1 LIG   0.0000 
 69 H36      9.9700     7.1300    23.6700 H     1 LIG   0.0000 
@<TRIPOS>BOND
  1   1   2  2   
  2   2   3  1   
  3   2   5  am  
  4   3   4  1   
  5   3  48  1   
  6   3  49  1   
  7   5   6  1   
  8   5  40  1   
  9   6   7  1   
 10   6  50  1   
 11   6  51  1   
 12   7   8  1   
 13   7  52  1   
 14   7  53  1   
 15   8   9  am  
 16   8  39  1   
 17   9  10  2   
 18   9  11  2   
 19   9  12  1   
 20  12  13  ar  
 21  12  38  ar  
 22  13  14  ar  
 23  13  41  1   
 24  14  15  ar  
 25  14  42  1   
 26  15  16  1   
 27  15  17  ar  
 28  17  18  1   
 29  17  38  ar  
 30  18  19  1   
 31  18  54  1   
 32  18  55  1   
 33  19  20  1   
 34  19  37  1   
 35  19  56  1   
 36  20  21  1   
 37  20  57  1   
 38  20  58  1   
 39  21  22  am  
 40  21  35  1   
 41  22  23  2   
 42  22  24  am  
 43  24  25  1   
 44  24  69  1   
 45  25  26  1   
 46  25  59  1   
 47  25  60  1   
 48  26  27  ar  
 49  26  34  ar  
 50  27  28  ar  
 51  27  44  1   
 52  28  29  ar  
 53  28  45  1   
 54  29  30  1   
 55  29  33  ar  
 56  30  31  2   
 57  30  32  2   
 58  33  34  ar  
 59  33  46  1   
 60  34  47  1   
 61  35  36  1   
 62  35  61  1   
 63  35  62  1   
 64  36  37  1   
 65  36  63  1   
 66  36  64  1   
 67  38  43  1   
 68  39  40  1   
 69  39  65  1   
 70  39  66  1   
 71  40  67  1   
 72  40  68  1   
@<TRIPOS>SUBSTRUCTURE
  1 LIG  39 GROUP 4 **** **** 0
@<TRIPOS>PROPERTY_DATA
index	|	ligand519
Name	|	PED-UNI-b79-1
ChemPlp	|	-103.154
MM-GBSA Nwat=0	|	4.7641
STDEV0	|	2.5819
MM-GBSA Nwat=30	|	25.0461
STDEV30	|	10.6721
MM-GBSA Nwat=60	|	-4.8877
STDEV60	|	11.8095
ST.DEV < 10%	|	N
RMSD LIG < 2	|	
DIST < 5	|	
DIST < 3.5	|	N

# MOE 2019.01 (io_trps.svl 2018.10)

@<TRIPOS>MOLECULE
ligand345
77 80 1 0 0 
SMALL
USER_CHARGES


@<TRIPOS>ATOM
  1 C1      12.9970     4.5300    22.3260 C.3   1 LIG   0.0000 
  2 C5      11.9730     4.2640    23.4180 C.3   1 LIG   0.0000 
  3 C7      11.8880     5.4710    24.3370 C.3   1 LIG   0.0000 
  4 N11     10.6580     4.0180    22.8070 N.4   1 LIG   1.0000 
  5 C12     10.7150     2.7940    21.9960 C.3   1 LIG   0.0000 
  6 C16      9.7180     3.8710    23.7920 C.2   1 LIG   0.0000 
  7 C17      9.8600     2.9450    24.6940 C.2   1 LIG   0.0000 
  8 N19      8.9200     2.7970    25.6790 N.4   1 LIG   1.0000 
  9 C22      7.7050     2.1970    25.1100 C.3   1 LIG   0.0000 
 10 C25      8.0010     0.7670    24.6720 C.2   1 LIG   0.0000 
 11 C26      8.1900    -0.3260    25.5520 C.2   1 LIG   0.0000 
 12 C28      8.4360    -1.4150    24.7680 C.2   1 LIG   0.0000 
 13 C29      8.6960    -2.7540    25.2600 C.ar  1 LIG   0.0000 
 14 C30      9.7430    -3.4980    24.7290 C.ar  1 LIG   0.0000 
 15 C32      9.9930    -4.7820    25.2020 C.ar  1 LIG   0.0000 
 16 C34      9.1940    -5.3220    26.2050 C.ar  1 LIG   0.0000 
 17 C36      8.1460    -4.5780    26.7360 C.ar  1 LIG   0.0000 
 18 C38      7.8960    -3.2940    26.2640 C.ar  1 LIG   0.0000 
 19 F39      6.8940    -2.5820    26.7720 F     1 LIG   0.0000 
 20 N40      8.3870    -1.0160    23.4600 N.pl3 1 LIG   0.0000 
 21 S41      8.6250    -2.0290    22.1270 S.o2  1 LIG   0.0000 
 22 O42      8.4290    -1.2790    20.9140 O.2   1 LIG   0.0000 
 23 O43      9.9660    -2.5540    22.1560 O.2   1 LIG   0.0000 
 24 C44      7.4860    -3.3440    22.1870 C.ar  1 LIG   0.0000 
 25 C45      7.9010    -4.5950    22.6300 C.ar  1 LIG   0.0000 
 26 C47      6.9910    -5.6450    22.6770 C.ar  1 LIG   0.0000 
 27 C49      5.6780    -5.4160    22.2780 C.ar  1 LIG   0.0000 
 28 N51      5.2960    -4.2020    21.8540 N.ar  1 LIG   0.0000 
 29 C52      6.1600    -3.1770    21.8010 C.ar  1 LIG   0.0000 
 30 C54      8.1240     0.3220    23.3800 C.2   1 LIG   0.0000 
 31 C56      8.5070     4.7900    23.8320 C.3   1 LIG   0.0000 
 32 C58      9.0150     6.2230    23.9080 C.3   1 LIG   0.0000 
 33 C61      7.8820     7.2390    23.8700 C.3   1 LIG   0.0000 
 34 N64      6.8990     6.9290    22.8190 N.am  1 LIG   0.0000 
 35 C65      6.2430     7.9910    22.1920 C.2   1 LIG   0.0000 
 36 O66      6.4860     9.1210    22.5150 O.2   1 LIG   0.0000 
 37 C67      5.2200     7.7160    21.1020 C.3   1 LIG   0.0000 
 38 CL70     5.2000     9.0740    19.9510 Cl    1 LIG   0.0000 
 39 C71      6.5750     5.5570    22.3920 C.3   1 LIG   0.0000 
 40 C74      7.7740     4.6260    22.5080 C.3   1 LIG   0.0000 
 41 H26      8.1510    -0.3040    26.5510 H     1 LIG   0.0000 
 42 H54      8.0390     0.8680    22.5470 H     1 LIG   0.0000 
 43 H30     10.3160    -3.1110    24.0080 H     1 LIG   0.0000 
 44 H32     10.7470    -5.3180    24.8210 H     1 LIG   0.0000 
 45 H34      9.3730    -6.2460    26.5440 H     1 LIG   0.0000 
 46 H36      7.5730    -4.9660    27.4580 H     1 LIG   0.0000 
 47 H45      8.8500    -4.7390    22.9120 H     1 LIG   0.0000 
 48 H47      7.2750    -6.5500    22.9940 H     1 LIG   0.0000 
 49 H49      5.0130    -6.1630    22.3070 H     1 LIG   0.0000 
 50 H52      5.8470    -2.2830    21.4810 H     1 LIG   0.0000 
 51 H11     13.8910     4.6960    22.7410 H     1 LIG   0.0000 
 52 H12     13.0530     3.7350    21.7210 H     1 LIG   0.0000 
 53 H13     12.7200     5.3320    21.7980 H     1 LIG   0.0000 
 54 H5      12.2500     3.4610    23.9460 H     1 LIG   0.0000 
 55 H71     12.7820     5.6370    24.7520 H     1 LIG   0.0000 
 56 H72     11.6110     6.2730    23.8090 H     1 LIG   0.0000 
 57 H73     11.2140     5.2960    25.0550 H     1 LIG   0.0000 
 58 H11     10.4120     4.7930    22.2240 H     1 LIG   0.0000 
 59 H121    11.4020     2.9010    21.2770 H     1 LIG   0.0000 
 60 H122    10.9620     2.0190    22.5790 H     1 LIG   0.0000 
 61 H123     9.8210     2.6270    21.5810 H     1 LIG   0.0000 
 62 H191     8.7000     3.6930    26.0660 H     1 LIG   0.0000 
 63 H192     9.2800     2.2030    26.3970 H     1 LIG   0.0000 
 64 H221     7.4070     2.7330    24.3200 H     1 LIG   0.0000 
 65 H222     6.9810     2.1920    25.8000 H     1 LIG   0.0000 
 66 H56      7.9120     4.5740    24.6060 H     1 LIG   0.0000 
 67 H581     9.6240     6.3910    23.1320 H     1 LIG   0.0000 
 68 H582     9.5230     6.3390    24.7620 H     1 LIG   0.0000 
 69 H611     7.4180     7.2390    24.7560 H     1 LIG   0.0000 
 70 H612     8.2660     8.1450    23.6950 H     1 LIG   0.0000 
 71 H671     5.4640     6.8750    20.6200 H     1 LIG   0.0000 
 72 H672     4.3140     7.6140    21.5130 H     1 LIG   0.0000 
 73 H711     6.2740     5.5790    21.4380 H     1 LIG   0.0000 
 74 H712     5.8360     5.2060    22.9670 H     1 LIG   0.0000 
 75 H741     7.4550     3.6810    22.4320 H     1 LIG   0.0000 
 76 H742     8.4090     4.8240    21.7620 H     1 LIG   0.0000 
 77 H17     10.6570     2.3400    24.6680 H     1 LIG   0.0000 
@<TRIPOS>BOND
  1   1   2  1   
  2   1  51  1   
  3   1  52  1   
  4   1  53  1   
  5   2   3  1   
  6   2   4  1   
  7   2  54  1   
  8   3  55  1   
  9   3  56  1   
 10   3  57  1   
 11   4   5  1   
 12   4   6  1   
 13   4  58  1   
 14   5  59  1   
 15   5  60  1   
 16   5  61  1   
 17   6   7  2   
 18   6  31  1   
 19   7   8  1   
 20   7  77  1   
 21   8   9  1   
 22   8  62  1   
 23   8  63  1   
 24   9  10  1   
 25   9  64  1   
 26   9  65  1   
 27  10  11  1   
 28  10  30  2   
 29  11  12  2   
 30  11  41  1   
 31  12  13  1   
 32  12  20  1   
 33  13  14  ar  
 34  13  18  ar  
 35  14  15  ar  
 36  14  43  1   
 37  15  16  ar  
 38  15  44  1   
 39  16  17  ar  
 40  16  45  1   
 41  17  18  ar  
 42  17  46  1   
 43  18  19  1   
 44  20  21  1   
 45  20  30  1   
 46  21  22  2   
 47  21  23  2   
 48  21  24  1   
 49  24  25  ar  
 50  24  29  ar  
 51  25  26  ar  
 52  25  47  1   
 53  26  27  ar  
 54  26  48  1   
 55  27  28  ar  
 56  27  49  1   
 57  28  29  ar  
 58  29  50  1   
 59  30  42  1   
 60  31  32  1   
 61  31  40  1   
 62  31  66  1   
 63  32  33  1   
 64  32  67  1   
 65  32  68  1   
 66  33  34  1   
 67  33  69  1   
 68  33  70  1   
 69  34  35  am  
 70  34  39  1   
 71  35  36  2   
 72  35  37  1   
 73  37  38  1   
 74  37  71  1   
 75  37  72  1   
 76  39  40  1   
 77  39  73  1   
 78  39  74  1   
 79  40  75  1   
 80  40  76  1   
@<TRIPOS>SUBSTRUCTURE
  1 LIG  30 GROUP 4 **** **** 0
@<TRIPOS>PROPERTY_DATA
index	|	ligand345
Name	|	MAK-UNK-8fd-39
ChemPlp	|	-91.4724
MM-GBSA Nwat=0	|	72.4064
STDEV0	|	6.9233
MM-GBSA Nwat=30	|	27.7311
STDEV30	|	14.7042
MM-GBSA Nwat=60	|	-0.271
STDEV60	|	12.3985
ST.DEV < 10%	|	N
RMSD LIG < 2	|	
DIST < 5	|	
DIST < 3.5	|	N

# MOE 2019.01 (io_trps.svl 2018.10)

@<TRIPOS>MOLECULE
ligand170
54 57 1 0 0 
SMALL
USER_CHARGES


@<TRIPOS>ATOM
  1 C1       3.4670    -6.8020    29.4300 C.2   1 LIG   0.0000 
  2 C4       4.2900    -5.7990    29.5140 C.2   1 LIG   0.0000 
  3 S6       6.0060    -6.0850    29.6080 S.o2  1 LIG   0.0000 
  4 O7       6.2680    -7.4910    29.4380 O.2   1 LIG   0.0000 
  5 O8       6.4950    -5.6580    30.8940 O.2   1 LIG   0.0000 
  6 N9       6.8240    -5.1780    28.3380 N.am  1 LIG   0.0000 
  7 C10      7.6020    -6.0640    27.4590 C.3   1 LIG   0.0000 
  8 C13      8.3140    -5.2570    26.3860 C.3   1 LIG   0.0000 
  9 N16      7.3450    -4.4750    25.6020 N.4   1 LIG   1.0000 
 10 C17      8.0300    -3.7180    24.5450 C.ar  1 LIG   0.0000 
 11 C18      9.3510    -3.3240    24.7270 C.ar  1 LIG   0.0000 
 12 C20      9.9990    -2.6060    23.7260 C.ar  1 LIG   0.0000 
 13 C22      9.3160    -2.2920    22.5550 C.ar  1 LIG   0.0000 
 14 C23     10.0210    -1.5060    21.4560 C.3   1 LIG   0.0000 
 15 N24      9.0150    -0.6140    20.8680 N.am  1 LIG   0.0000 
 16 C26      9.4010     0.6990    21.1340 C.2   1 LIG   0.0000 
 17 O27      8.7850     1.7010    20.8040 O.2   1 LIG   0.0000 
 18 C28     10.6390     0.6800    21.8750 C.ar  1 LIG   0.0000 
 19 C29     11.4080     1.7440    22.3390 C.ar  1 LIG   0.0000 
 20 C31     12.5880     1.5150    23.0380 C.ar  1 LIG   0.0000 
 21 C33     13.0080     0.2110    23.2760 C.ar  1 LIG   0.0000 
 22 C35     12.2280    -0.8400    22.8070 C.ar  1 LIG   0.0000 
 23 C37     11.0460    -0.6060    22.1110 C.ar  1 LIG   0.0000 
 24 C38      7.9950    -2.6820    22.3650 C.ar  1 LIG   0.0000 
 25 C40      7.3560    -3.3980    23.3710 C.ar  1 LIG   0.0000 
 26 S41      5.7030    -3.8990    23.1620 S.o2  1 LIG   0.0000 
 27 N42      4.7170    -2.8540    23.9310 N.am  1 LIG   0.0000 
 28 O45      5.3810    -3.9180    21.7580 O.2   1 LIG   0.0000 
 29 O46      5.5280    -5.2180    23.7120 O.2   1 LIG   0.0000 
 30 C47      6.5730    -3.5860    26.4830 C.3   1 LIG   0.0000 
 31 C50      5.8580    -4.3930    27.5550 C.3   1 LIG   0.0000 
 32 H18      9.8330    -3.5540    25.5720 H     1 LIG   0.0000 
 33 H20     10.9480    -2.3190    23.8480 H     1 LIG   0.0000 
 34 H38      7.5130    -2.4510    21.5200 H     1 LIG   0.0000 
 35 H29     11.1080     2.6820    22.1680 H     1 LIG   0.0000 
 36 H31     13.1320     2.2860    23.3690 H     1 LIG   0.0000 
 37 H33     13.8560     0.0330    23.7760 H     1 LIG   0.0000 
 38 H35     12.5230    -1.7820    22.9720 H     1 LIG   0.0000 
 39 H101     6.9850    -6.7200    27.0240 H     1 LIG   0.0000 
 40 H102     8.2800    -6.5560    28.0050 H     1 LIG   0.0000 
 41 H131     8.9650    -4.6340    26.8190 H     1 LIG   0.0000 
 42 H132     8.8040    -5.8800    25.7760 H     1 LIG   0.0000 
 43 H16      6.7090    -5.1130    25.1680 H     1 LIG   0.0000 
 44 H23     10.4330    -2.1080    20.7720 H     1 LIG   0.0000 
 45 H471     5.8970    -3.0890    25.9390 H     1 LIG   0.0000 
 46 H472     7.1930    -2.9350    26.9200 H     1 LIG   0.0000 
 47 H501     5.3690    -3.7690    28.1650 H     1 LIG   0.0000 
 48 H502     5.2050    -5.0130    27.1200 H     1 LIG   0.0000 
 49 H11      2.4820    -6.6370    29.3760 H     1 LIG   0.0000 
 50 H12      3.8190    -7.7380    29.4200 H     1 LIG   0.0000 
 51 H4       3.9380    -4.8630    29.5250 H     1 LIG   0.0000 
 52 H24      8.1980    -0.8970    20.3650 H     1 LIG   0.0000 
 53 H421     4.3990    -2.1590    23.2860 H     1 LIG   0.0000 
 54 H422     3.9310    -3.3490    24.3020 H     1 LIG   0.0000 
@<TRIPOS>BOND
  1   1   2  2   
  2   1  49  1   
  3   1  50  1   
  4   2   3  1   
  5   2  51  1   
  6   3   4  2   
  7   3   5  2   
  8   3   6  am  
  9   6   7  1   
 10   6  31  1   
 11   7   8  1   
 12   7  39  1   
 13   7  40  1   
 14   8   9  1   
 15   8  41  1   
 16   8  42  1   
 17   9  10  1   
 18   9  30  1   
 19   9  43  1   
 20  10  11  ar  
 21  10  25  ar  
 22  11  12  ar  
 23  11  32  1   
 24  12  13  ar  
 25  12  33  1   
 26  13  14  1   
 27  13  24  ar  
 28  14  15  1   
 29  14  23  1   
 30  14  44  1   
 31  15  16  am  
 32  15  52  1   
 33  16  17  2   
 34  16  18  1   
 35  18  19  ar  
 36  18  23  ar  
 37  19  20  ar  
 38  19  35  1   
 39  20  21  ar  
 40  20  36  1   
 41  21  22  ar  
 42  21  37  1   
 43  22  23  ar  
 44  22  38  1   
 45  24  25  ar  
 46  24  34  1   
 47  25  26  1   
 48  26  27  am  
 49  26  28  2   
 50  26  29  2   
 51  27  53  1   
 52  27  54  1   
 53  30  31  1   
 54  30  45  1   
 55  30  46  1   
 56  31  47  1   
 57  31  48  1   
@<TRIPOS>SUBSTRUCTURE
  1 LIG  10 GROUP 4 **** **** 0
@<TRIPOS>PROPERTY_DATA
index	|	ligand170
Name	|	DR -UNK-640-3
ChemPlp	|	-91.5261
MM-GBSA Nwat=0	|	43.9628
STDEV0	|	4.5032
MM-GBSA Nwat=30	|	28.5567
STDEV30	|	16.2272
MM-GBSA Nwat=60	|	-24.7731
STDEV60	|	13.7698
ST.DEV < 10%	|	N
RMSD LIG < 2	|	
DIST < 5	|	
DIST < 3.5	|	N

# MOE 2019.01 (io_trps.svl 2018.10)

@<TRIPOS>MOLECULE
ligand236
61 64 1 0 0 
SMALL
NO_CHARGES


@<TRIPOS>ATOM
  1 C1      13.5910     5.1220    23.1000 C.2   1 LIG   0.0000 
  2 C4      13.0450     3.9560    22.9220 C.2   1 LIG   0.0000 
  3 C6      11.8920     3.5130    23.8080 C.2   1 LIG   0.0000 
  4 O7      11.5190     4.2180    24.7040 O.2   1 LIG   0.0000 
  5 N8      11.2650     2.2820    23.5780 N.am  1 LIG   0.0000 
  6 C9      10.1540     1.7280    24.3510 C.3   1 LIG   0.0000 
  7 C12     10.3800     0.2300    24.3030 C.3   1 LIG   0.0000 
  8 C13      9.1600    -0.6240    23.9990 C.3   1 LIG   0.0000 
  9 N16      9.1520    -0.7540    22.5440 N.am  1 LIG   0.0000 
 10 S17      8.0850    -2.0470    22.0110 S.o2  1 LIG   0.0000 
 11 O18      7.1710    -2.3820    23.0710 O.2   1 LIG   0.0000 
 12 O19      8.8690    -3.2060    21.6680 O.2   1 LIG   0.0000 
 13 C20      7.1880    -1.5210    20.6160 C.ar  1 LIG   0.0000 
 14 C21      7.5120    -0.3190    19.9930 C.ar  1 LIG   0.0000 
 15 F22      8.5080     0.4190    20.4750 F     1 LIG   0.0000 
 16 C23      6.8050     0.1180    18.8770 C.ar  1 LIG   0.0000 
 17 C25      5.7630    -0.6560    18.3780 C.ar  1 LIG   0.0000 
 18 C27      5.4330    -1.8590    18.9930 C.ar  1 LIG   0.0000 
 19 C29      6.1450    -2.2880    20.1090 C.ar  1 LIG   0.0000 
 20 O30      5.8250    -3.4560    20.7070 O.3   1 LIG   0.0000 
 21 C31      6.7100    -4.5630    20.6220 C.3   1 LIG   0.0000 
 22 C34      6.0000    -5.8170    21.1050 C.3   1 LIG   0.0000 
 23 C37      5.6440    -5.6630    22.5750 C.3   1 LIG   0.0000 
 24 N40      4.8760    -6.8350    23.0180 N.pl3 1 LIG   0.0000 
 25 C42      4.2830    -6.8450    24.2860 C.ar  1 LIG   0.0000 
 26 C43      4.5100    -5.7590    25.1250 C.ar  1 LIG   0.0000 
 27 C45      3.9280    -5.7520    26.3880 C.ar  1 LIG   0.0000 
 28 C47      3.1320    -6.8180    26.7950 C.ar  1 LIG   0.0000 
 29 C48      2.5010    -6.8020    28.1780 C.1   1 LIG   0.0000 
 30 N49      2.0270    -6.7900    29.2150 N.1   1 LIG   0.0000 
 31 C50      2.9440    -7.8740    25.9090 C.ar  1 LIG   0.0000 
 32 N52      3.5130    -7.8650    24.6950 N.ar  1 LIG   0.0000 
 33 C53     10.5680    -1.0490    22.2970 C.3   1 LIG   0.0000 
 34 C56     11.3190    -0.0280    23.1340 C.3   1 LIG   0.0000 
 35 C57     11.6110     1.3270    22.5280 C.3   1 LIG   0.0000 
 36 H23      7.0450     0.9830    18.4360 H     1 LIG   0.0000 
 37 H25      5.2510    -0.3480    17.5760 H     1 LIG   0.0000 
 38 H27      4.6840    -2.4160    18.6340 H     1 LIG   0.0000 
 39 H43      5.0830    -4.9960    24.8250 H     1 LIG   0.0000 
 40 H45      4.0810    -4.9800    27.0040 H     1 LIG   0.0000 
 41 H50      2.3760    -8.6510    26.1810 H     1 LIG   0.0000 
 42 H91      9.2770     1.9680    23.9340 H     1 LIG   0.0000 
 43 H92     10.1770     2.0600    25.2940 H     1 LIG   0.0000 
 44 H12     10.8050    -0.0770    25.1550 H     1 LIG   0.0000 
 45 H131     9.2400    -1.5220    24.4320 H     1 LIG   0.0000 
 46 H132     8.3250    -0.1740    24.3170 H     1 LIG   0.0000 
 47 H311     7.5120    -4.3920    21.1940 H     1 LIG   0.0000 
 48 H312     6.9980    -4.6870    19.6720 H     1 LIG   0.0000 
 49 H341     6.6030    -6.6060    20.9900 H     1 LIG   0.0000 
 50 H342     5.1660    -5.9540    20.5720 H     1 LIG   0.0000 
 51 H371     6.4820    -5.5890    23.1150 H     1 LIG   0.0000 
 52 H372     5.0930    -4.8380    22.6990 H     1 LIG   0.0000 
 53 H531    10.7880    -0.9410    21.3270 H     1 LIG   0.0000 
 54 H532    10.7920    -1.9790    22.5880 H     1 LIG   0.0000 
 55 H56     12.1680    -0.4330    23.4720 H     1 LIG   0.0000 
 56 H571    12.5780     1.4040    22.2860 H     1 LIG   0.0000 
 57 H572    11.0500     1.4780    21.7140 H     1 LIG   0.0000 
 58 H11     14.3500     5.4130    22.5170 H     1 LIG   0.0000 
 59 H12     13.2530     5.7270    23.8200 H     1 LIG   0.0000 
 60 H4      13.3830     3.3500    22.2010 H     1 LIG   0.0000 
 61 H40      4.7770    -7.6260    22.4140 H     1 LIG   0.0000 
@<TRIPOS>BOND
  1   1   2  2   
  2   1  58  1   
  3   1  59  1   
  4   2   3  1   
  5   2  60  1   
  6   3   4  2   
  7   3   5  am  
  8   5   6  1   
  9   5  35  1   
 10   6   7  1   
 11   6  42  1   
 12   6  43  1   
 13   7   8  1   
 14   7  34  1   
 15   7  44  1   
 16   8   9  1   
 17   8  45  1   
 18   8  46  1   
 19   9  10  am  
 20   9  33  1   
 21  10  11  2   
 22  10  12  2   
 23  10  13  1   
 24  13  14  ar  
 25  13  19  ar  
 26  14  15  1   
 27  14  16  ar  
 28  16  17  ar  
 29  16  36  1   
 30  17  18  ar  
 31  17  37  1   
 32  18  19  ar  
 33  18  38  1   
 34  19  20  1   
 35  20  21  1   
 36  21  22  1   
 37  21  47  1   
 38  21  48  1   
 39  22  23  1   
 40  22  49  1   
 41  22  50  1   
 42  23  24  1   
 43  23  51  1   
 44  23  52  1   
 45  24  25  1   
 46  24  61  1   
 47  25  26  ar  
 48  25  32  ar  
 49  26  27  ar  
 50  26  39  1   
 51  27  28  ar  
 52  27  40  1   
 53  28  29  1   
 54  28  31  ar  
 55  29  30  3   
 56  31  32  ar  
 57  31  41  1   
 58  33  34  1   
 59  33  53  1   
 60  33  54  1   
 61  34  35  1   
 62  34  55  1   
 63  35  56  1   
 64  35  57  1   
@<TRIPOS>SUBSTRUCTURE
  1 LIG  11 GROUP 4 **** **** 0
@<TRIPOS>PROPERTY_DATA
index	|	ligand236
Name	|	JAN-GHE-bf4-3
ChemPlp	|	-96.2303
MM-GBSA Nwat=0	|	23.0577
STDEV0	|	7.3391
MM-GBSA Nwat=30	|	29.1732
STDEV30	|	12.0204
MM-GBSA Nwat=60	|	-9.7568
STDEV60	|	12.5113
ST.DEV < 10%	|	N
RMSD LIG < 2	|	
DIST < 5	|	
DIST < 3.5	|	N

# MOE 2019.01 (io_trps.svl 2018.10)

@<TRIPOS>MOLECULE
ligand328
74 77 1 0 0 
SMALL
NO_CHARGES


@<TRIPOS>ATOM
  1 C1       9.9080     0.9160    21.4100 C.3   1 LIG   0.0000 
  2 C5      10.6380     0.2070    22.5390 C.3   1 LIG   0.0000 
  3 C6      10.8680    -1.2470    22.1590 C.3   1 LIG   0.0000 
  4 C9       9.5260    -1.9620    22.0500 C.2   1 LIG   0.0000 
  5 C10      9.0680    -2.9640    22.9400 C.2   1 LIG   0.0000 
  6 C12      7.8370    -3.3450    22.4920 C.2   1 LIG   0.0000 
  7 C13      7.0050    -4.3600    23.1080 C.ar  1 LIG   0.0000 
  8 C14      6.2150    -5.1860    22.3150 C.ar  1 LIG   0.0000 
  9 C16      5.4180    -6.1610    22.9050 C.ar  1 LIG   0.0000 
 10 C18      5.4090    -6.3090    24.2880 C.ar  1 LIG   0.0000 
 11 C20      6.1980    -5.4830    25.0810 C.ar  1 LIG   0.0000 
 12 C22      6.9960    -4.5090    24.4910 C.ar  1 LIG   0.0000 
 13 F23      7.7520    -3.7190    25.2500 F     1 LIG   0.0000 
 14 N24      7.5400    -2.6020    21.3820 N.pl3 1 LIG   0.0000 
 15 S25      6.1120    -2.7240    20.4860 S.o2  1 LIG   0.0000 
 16 O26      6.1980    -3.8520    19.5960 O.2   1 LIG   0.0000 
 17 O27      4.9980    -2.9030    21.3810 O.2   1 LIG   0.0000 
 18 C28      5.8830    -1.2700    19.5590 C.ar  1 LIG   0.0000 
 19 C29      5.6780    -0.0600    20.2140 C.ar  1 LIG   0.0000 
 20 C31      5.4950     1.1020    19.4720 C.ar  1 LIG   0.0000 
 21 C33      5.5220     1.0260    18.0830 C.ar  1 LIG   0.0000 
 22 N35      5.7220    -0.1500    17.4700 N.ar  1 LIG   0.0000 
 23 C36      5.9000    -1.2820    18.1680 C.ar  1 LIG   0.0000 
 24 C38      8.5670    -1.7490    21.0920 C.2   1 LIG   0.0000 
 25 C40     11.9760     0.8850    22.7820 C.3   1 LIG   0.0000 
 26 C41     12.6070     0.3230    24.0450 C.3   1 LIG   0.0000 
 27 N45     11.7710     2.3320    22.9390 N.am  1 LIG   0.0000 
 28 C46     12.4030     3.2700    22.0000 C.3   1 LIG   0.0000 
 29 C50     10.9910     2.8060    23.9610 C.2   1 LIG   0.0000 
 30 O51     10.4760     2.0400    24.7270 O.2   1 LIG   0.0000 
 31 C52     10.7790     4.3030    24.1240 C.3   1 LIG   0.0000 
 32 C54      9.8300     4.5130    25.2950 C.3   1 LIG   0.0000 
 33 C57      9.6090     5.9870    25.6020 C.3   1 LIG   0.0000 
 34 N60     10.8730     6.7420    25.6170 N.am  1 LIG   0.0000 
 35 C61     10.9840     7.8300    26.4860 C.2   1 LIG   0.0000 
 36 O62     10.0630     8.1270    27.1960 O.2   1 LIG   0.0000 
 37 C63     12.2710     8.6370    26.5340 C.3   1 LIG   0.0000 
 38 CL66    13.3710     7.9300    27.7420 Cl    1 LIG   0.0000 
 39 C67     12.0270     6.4070    24.7660 C.3   1 LIG   0.0000 
 40 C70     12.1230     4.9110    24.4980 C.3   1 LIG   0.0000 
 41 H10      9.5510    -3.3210    23.7400 H     1 LIG   0.0000 
 42 H38      8.6110    -1.0990    20.3330 H     1 LIG   0.0000 
 43 H14      6.2210    -5.0780    21.3200 H     1 LIG   0.0000 
 44 H16      4.8500    -6.7550    22.3340 H     1 LIG   0.0000 
 45 H18      4.8340    -7.0090    24.7120 H     1 LIG   0.0000 
 46 H20      6.1930    -5.5910    26.0750 H     1 LIG   0.0000 
 47 H29      5.6610    -0.0260    21.2130 H     1 LIG   0.0000 
 48 H31      5.3470     1.9790    19.9300 H     1 LIG   0.0000 
 49 H33      5.3920     1.8540    17.5380 H     1 LIG   0.0000 
 50 H36      6.0460    -2.1440    17.6830 H     1 LIG   0.0000 
 51 H11      9.0280     0.4700    21.2500 H     1 LIG   0.0000 
 52 H12      9.7570     1.8730    21.6600 H     1 LIG   0.0000 
 53 H13     10.4600     0.8730    20.5770 H     1 LIG   0.0000 
 54 H5      10.0860     0.2500    23.3720 H     1 LIG   0.0000 
 55 H61     11.3420    -1.2900    21.2790 H     1 LIG   0.0000 
 56 H62     11.4260    -1.6900    22.8600 H     1 LIG   0.0000 
 57 H40     12.5820     0.7170    22.0040 H     1 LIG   0.0000 
 58 H411    12.7470    -0.6620    23.9380 H     1 LIG   0.0000 
 59 H412    13.4880     0.7690    24.2050 H     1 LIG   0.0000 
 60 H413    12.0020     0.4910    24.8240 H     1 LIG   0.0000 
 61 H461    12.9320     2.7590    21.3230 H     1 LIG   0.0000 
 62 H462    11.6960     3.8050    21.5370 H     1 LIG   0.0000 
 63 H463    13.0100     3.8860    22.5020 H     1 LIG   0.0000 
 64 H52     10.4170     4.7120    23.2860 H     1 LIG   0.0000 
 65 H541    10.2150     4.0700    26.1050 H     1 LIG   0.0000 
 66 H542     8.9490     4.0950    25.0740 H     1 LIG   0.0000 
 67 H571     9.0090     6.3760    24.9040 H     1 LIG   0.0000 
 68 H572     9.1740     6.0690    26.4990 H     1 LIG   0.0000 
 69 H631    12.7080     8.6200    25.6340 H     1 LIG   0.0000 
 70 H632    12.0630     9.5820    26.7860 H     1 LIG   0.0000 
 71 H671    12.8640     6.7070    25.2230 H     1 LIG   0.0000 
 72 H672    11.9340     6.8850    23.8920 H     1 LIG   0.0000 
 73 H701    12.7650     4.7590    23.7470 H     1 LIG   0.0000 
 74 H702    12.4620     4.4580    25.3230 H     1 LIG   0.0000 
@<TRIPOS>BOND
  1   1   2  1   
  2   1  51  1   
  3   1  52  1   
  4   1  53  1   
  5   2   3  1   
  6   2  25  1   
  7   2  54  1   
  8   3   4  1   
  9   3  55  1   
 10   3  56  1   
 11   4   5  1   
 12   4  24  2   
 13   5   6  2   
 14   5  41  1   
 15   6   7  1   
 16   6  14  1   
 17   7   8  ar  
 18   7  12  ar  
 19   8   9  ar  
 20   8  43  1   
 21   9  10  ar  
 22   9  44  1   
 23  10  11  ar  
 24  10  45  1   
 25  11  12  ar  
 26  11  46  1   
 27  12  13  1   
 28  14  15  1   
 29  14  24  1   
 30  15  16  2   
 31  15  17  2   
 32  15  18  1   
 33  18  19  ar  
 34  18  23  ar  
 35  19  20  ar  
 36  19  47  1   
 37  20  21  ar  
 38  20  48  1   
 39  21  22  ar  
 40  21  49  1   
 41  22  23  ar  
 42  23  50  1   
 43  24  42  1   
 44  25  26  1   
 45  25  27  1   
 46  25  57  1   
 47  26  58  1   
 48  26  59  1   
 49  26  60  1   
 50  27  28  1   
 51  27  29  am  
 52  28  61  1   
 53  28  62  1   
 54  28  63  1   
 55  29  30  2   
 56  29  31  1   
 57  31  32  1   
 58  31  40  1   
 59  31  64  1   
 60  32  33  1   
 61  32  65  1   
 62  32  66  1   
 63  33  34  1   
 64  33  67  1   
 65  33  68  1   
 66  34  35  am  
 67  34  39  1   
 68  35  36  2   
 69  35  37  1   
 70  37  38  1   
 71  37  69  1   
 72  37  70  1   
 73  39  40  1   
 74  39  71  1   
 75  39  72  1   
 76  40  73  1   
 77  40  74  1   
@<TRIPOS>SUBSTRUCTURE
  1 LIG   2 GROUP 4 **** **** 0
@<TRIPOS>PROPERTY_DATA
index	|	ligand328
Name	|	MAK-UNK-8fd-2
ChemPlp	|	-101.346
MM-GBSA Nwat=0	|	23.6037
STDEV0	|	6.0639
MM-GBSA Nwat=30	|	30.1221
STDEV30	|	19.0426
MM-GBSA Nwat=60	|	-17.5537
STDEV60	|	17.9731
ST.DEV < 10%	|	N
RMSD LIG < 2	|	
DIST < 5	|	
DIST < 3.5	|	N

# MOE 2019.01 (io_trps.svl 2018.10)

@<TRIPOS>MOLECULE
ligand335
77 80 1 0 0 
SMALL
USER_CHARGES


@<TRIPOS>ATOM
  1 C1       3.7790     2.1930    19.8920 C.3   1 LIG   0.0000 
  2 H2       2.7820     2.2000    19.9700 H     1 LIG   0.0000 
  3 H3       4.1620     2.9390    20.4360 H     1 LIG   0.0000 
  4 H4       4.0380     2.3120    18.9330 H     1 LIG   0.0000 
  5 N5       4.3000     0.9100    20.3840 N.4   1 LIG   1.0000 
  6 H6       4.0410     0.7900    21.3420 H     1 LIG   0.0000 
  7 H7       3.9180     0.1630    19.8400 H     1 LIG   0.0000 
  8 C8       5.7660     0.9000    20.2680 C.3   1 LIG   0.0000 
  9 H9       6.1480     1.6500    20.8080 H     1 LIG   0.0000 
 10 H10      6.0250     1.0130    19.3090 H     1 LIG   0.0000 
 11 C11      6.3080    -0.4280    20.7880 C.2   1 LIG   0.0000 
 12 C12      7.3020    -0.5610    21.7870 C.2   1 LIG   0.0000 
 13 H13      7.7640     0.1800    22.2740 H     1 LIG   0.0000 
 14 C14      7.5040    -1.8990    21.9550 C.2   1 LIG   0.0000 
 15 C15      8.4490    -2.4880    22.8810 C.ar  1 LIG   0.0000 
 16 C16      8.0190    -3.5300    23.6950 C.ar  1 LIG   0.0000 
 17 H17      7.0760    -3.8570    23.6330 H     1 LIG   0.0000 
 18 C18      8.9020    -4.1180    24.5960 C.ar  1 LIG   0.0000 
 19 H19      8.5930    -4.8680    25.1810 H     1 LIG   0.0000 
 20 C20     10.2130    -3.6630    24.6830 C.ar  1 LIG   0.0000 
 21 H21     10.8470    -4.0850    25.3310 H     1 LIG   0.0000 
 22 C22     10.6430    -2.6210    23.8680 C.ar  1 LIG   0.0000 
 23 H23     11.5860    -2.2940    23.9300 H     1 LIG   0.0000 
 24 C24      9.7610    -2.0340    22.9670 C.ar  1 LIG   0.0000 
 25 C25     10.2670    -0.8980    22.0930 C.3   1 LIG   0.0000 
 26 H26     10.1950    -1.1590    21.1300 H     1 LIG   0.0000 
 27 H27      9.7170    -0.0790    22.2580 H     1 LIG   0.0000 
 28 N28     11.6730    -0.6170    22.4190 N.am  1 LIG   0.0000 
 29 C29     12.0010     0.5140    23.1200 C.2   1 LIG   0.0000 
 30 O30     13.1480     0.7430    23.3860 O.2   1 LIG   0.0000 
 31 C31     10.9110     1.4790    23.5590 C.3   1 LIG   0.0000 
 32 H32     10.2100     1.0130    24.0990 H     1 LIG   0.0000 
 33 C33     11.5720     2.5940    24.3570 C.3   1 LIG   0.0000 
 34 H34     12.2810     3.0160    23.7920 H     1 LIG   0.0000 
 35 H35     11.9890     2.2000    25.1760 H     1 LIG   0.0000 
 36 C36     10.5790     3.6670    24.7810 C.3   1 LIG   0.0000 
 37 H37     10.0200     3.3120    25.5300 H     1 LIG   0.0000 
 38 H38     11.0860     4.4700    25.0940 H     1 LIG   0.0000 
 39 N39      9.6930     4.0650    23.6750 N.am  1 LIG   0.0000 
 40 C40      9.2440     5.3880    23.6310 C.2   1 LIG   0.0000 
 41 O41      9.5810     6.1650    24.4810 O.2   1 LIG   0.0000 
 42 C42      8.3270     5.8420    22.5060 C.3   1 LIG   0.0000 
 43 H43      8.8760     6.0760    21.7040 H     1 LIG   0.0000 
 44 H44      7.6940     5.1040    22.2740 H     1 LIG   0.0000 
 45 CL45     7.4060     7.2710    23.0320 Cl    1 LIG   0.0000 
 46 C46      9.2610     3.1440    22.6110 C.3   1 LIG   0.0000 
 47 H47      9.0760     3.6720    21.7820 H     1 LIG   0.0000 
 48 H48      8.4250     2.6810    22.9050 H     1 LIG   0.0000 
 49 C49     10.3200     2.0950    22.2990 C.3   1 LIG   0.0000 
 50 H50      9.9020     1.3700    21.7520 H     1 LIG   0.0000 
 51 H51     11.0550     2.5260    21.7770 H     1 LIG   0.0000 
 52 C52     12.7270    -1.5500    21.9940 C.3   1 LIG   0.0000 
 53 H53     12.3090    -2.3540    21.5720 H     1 LIG   0.0000 
 54 C54     13.6350    -0.8630    20.9870 C.3   1 LIG   0.0000 
 55 H55     14.3520    -1.4970    20.6980 H     1 LIG   0.0000 
 56 H56     13.0980    -0.5820    20.1920 H     1 LIG   0.0000 
 57 H57     14.0520    -0.0580    21.4090 H     1 LIG   0.0000 
 58 C58     13.5430    -1.9770    23.2030 C.3   1 LIG   0.0000 
 59 H59     14.2590    -2.6120    22.9140 H     1 LIG   0.0000 
 60 H60     13.9600    -1.1730    23.6250 H     1 LIG   0.0000 
 61 H61     12.9450    -2.4290    23.8660 H     1 LIG   0.0000 
 62 N62      6.6620    -2.5660    21.1070 N.pl3 1 LIG   0.0000 
 63 S63      6.5550    -4.2480    20.9690 S.o2  1 LIG   0.0000 
 64 O64      5.8640    -4.5860    19.7520 O.2   1 LIG   0.0000 
 65 O65      7.8790    -4.8120    20.9420 O.2   1 LIG   0.0000 
 66 C66      5.6800    -4.8860    22.3300 C.ar  1 LIG   0.0000 
 67 C67      5.9020    -6.1970    22.7380 C.ar  1 LIG   0.0000 
 68 H68      6.5610    -6.7700    22.2510 H     1 LIG   0.0000 
 69 C69      5.2020    -6.7070    23.8260 C.ar  1 LIG   0.0000 
 70 H70      5.3510    -7.6480    24.1310 H     1 LIG   0.0000 
 71 C71      4.2900    -5.8880    24.4850 C.ar  1 LIG   0.0000 
 72 H72      3.7800    -6.2420    25.2690 H     1 LIG   0.0000 
 73 N73      4.0900    -4.6260    24.0760 N.ar  1 LIG   0.0000 
 74 C74      4.7550    -4.1170    23.0290 C.ar  1 LIG   0.0000 
 75 H75      4.5850    -3.1720    22.7470 H     1 LIG   0.0000 
 76 C76      5.9210    -1.6790    20.3790 C.2   1 LIG   0.0000 
 77 H77      5.2340    -1.8980    19.6860 H     1 LIG   0.0000 
@<TRIPOS>BOND
  1   1   2  1   
  2   1   3  1   
  3   1   4  1   
  4   1   5  1   
  5   5   6  1   
  6   5   7  1   
  7   5   8  1   
  8   8   9  1   
  9   8  10  1   
 10   8  11  1   
 11  11  12  1   
 12  11  76  2   
 13  12  13  1   
 14  12  14  2   
 15  14  15  1   
 16  14  62  1   
 17  15  16  ar  
 18  15  24  ar  
 19  16  17  1   
 20  16  18  ar  
 21  18  19  1   
 22  18  20  ar  
 23  20  21  1   
 24  20  22  ar  
 25  22  23  1   
 26  22  24  ar  
 27  24  25  1   
 28  25  26  1   
 29  25  27  1   
 30  25  28  1   
 31  28  29  am  
 32  28  52  1   
 33  29  30  2   
 34  29  31  1   
 35  31  32  1   
 36  31  33  1   
 37  31  49  1   
 38  33  34  1   
 39  33  35  1   
 40  33  36  1   
 41  36  37  1   
 42  36  38  1   
 43  36  39  1   
 44  39  40  am  
 45  39  46  1   
 46  40  41  2   
 47  40  42  1   
 48  42  43  1   
 49  42  44  1   
 50  42  45  1   
 51  46  47  1   
 52  46  48  1   
 53  46  49  1   
 54  49  50  1   
 55  49  51  1   
 56  52  53  1   
 57  52  54  1   
 58  52  58  1   
 59  54  55  1   
 60  54  56  1   
 61  54  57  1   
 62  58  59  1   
 63  58  60  1   
 64  58  61  1   
 65  62  63  1   
 66  62  76  1   
 67  63  64  2   
 68  63  65  2   
 69  63  66  1   
 70  66  67  ar  
 71  66  74  ar  
 72  67  68  1   
 73  67  69  ar  
 74  69  70  1   
 75  69  71  ar  
 76  71  72  1   
 77  71  73  ar  
 78  73  74  ar  
 79  74  75  1   
 80  76  77  1   
@<TRIPOS>SUBSTRUCTURE
  1 LIG  12 GROUP 4 **** **** 0
@<TRIPOS>PROPERTY_DATA
index	|	ligand335
Name	|	MAK-UNK-8fd-26
ChemPlp	|	-92.8733
MM-GBSA Nwat=0	|	59.7639
STDEV0	|	6.6852
MM-GBSA Nwat=30	|	30.1244
STDEV30	|	12.1484
MM-GBSA Nwat=60	|	6.5678
STDEV60	|	12.0357
ST.DEV < 10%	|	N
RMSD LIG < 2	|	
DIST < 5	|	
DIST < 3.5	|	N

# MOE 2019.01 (io_trps.svl 2018.10)

@<TRIPOS>MOLECULE
ligand502
58 60 1 0 0 
SMALL
NO_CHARGES


@<TRIPOS>ATOM
  1 N1      13.9010     5.0020    24.0150 N.am  1 LIG   0.0000 
  2 S4      12.7340     4.9050    22.8810 S.o2  1 LIG   0.0000 
  3 O5      12.4890     3.5230    22.5610 O.2   1 LIG   0.0000 
  4 O6      13.1570     5.6050    21.6960 O.2   1 LIG   0.0000 
  5 C7      11.2720     5.6280    23.4900 C.ar  1 LIG   0.0000 
  6 C8      11.2950     6.2680    24.7230 C.ar  1 LIG   0.0000 
  7 C10     10.1490     6.8740    25.2280 C.ar  1 LIG   0.0000 
  8 C12      8.9760     6.8480    24.4810 C.ar  1 LIG   0.0000 
  9 C13      8.9220     6.1920    23.2560 C.ar  1 LIG   0.0000 
 10 C14     10.0820     5.5920    22.7720 C.ar  1 LIG   0.0000 
 11 N16      7.6960     6.1830    22.5720 N.pl3 1 LIG   0.0000 
 12 C17      7.2290     5.0150    21.8130 C.3   1 LIG   0.0000 
 13 C20      7.7250     3.7440    22.4820 C.3   1 LIG   0.0000 
 14 C23      7.3630     2.5440    21.6230 C.3   1 LIG   0.0000 
 15 C26      5.8510     2.4100    21.5520 C.3   1 LIG   0.0000 
 16 C29      5.4880     1.2510    20.6380 C.3   1 LIG   0.0000 
 17 C30      5.9540     1.5240    19.2140 C.3   1 LIG   0.0000 
 18 C33      5.4990     0.3490    18.3590 C.3   1 LIG   0.0000 
 19 C36      6.1090    -0.9720    18.8090 C.3   1 LIG   0.0000 
 20 N39      6.0280    -1.1460    20.2690 N.am  1 LIG   0.0000 
 21 C40      5.8730    -2.4420    20.7760 C.2   1 LIG   0.0000 
 22 O41      5.8120    -3.3770    20.0260 O.2   1 LIG   0.0000 
 23 C42      5.7820    -2.6650    22.2770 C.3   1 LIG   0.0000 
 24 CL45     5.2450    -4.3320    22.5970 Cl    1 LIG   0.0000 
 25 C46      6.1000    -0.0180    21.2130 C.3   1 LIG   0.0000 
 26 C49      6.8470     7.3880    22.5930 C.3   1 LIG   0.0000 
 27 C52      7.1140     8.2820    23.7950 C.3   1 LIG   0.0000 
 28 C55      7.7230     7.5490    24.9840 C.3   1 LIG   0.0000 
 29 H8      12.1430     6.2940    25.2530 H     1 LIG   0.0000 
 30 H10     10.1690     7.3240    26.1210 H     1 LIG   0.0000 
 31 H14     10.0580     5.1240    21.8880 H     1 LIG   0.0000 
 32 H171     7.5840     5.0610    20.8790 H     1 LIG   0.0000 
 33 H172     6.2290     5.0110    21.7890 H     1 LIG   0.0000 
 34 H201     7.2970     3.6520    23.3810 H     1 LIG   0.0000 
 35 H202     8.7190     3.7900    22.5890 H     1 LIG   0.0000 
 36 H231     7.7310     2.6710    20.7020 H     1 LIG   0.0000 
 37 H232     7.7520     1.7160    22.0260 H     1 LIG   0.0000 
 38 H261     5.4880     2.2390    22.4670 H     1 LIG   0.0000 
 39 H262     5.4580     3.2560    21.1900 H     1 LIG   0.0000 
 40 H29      4.4930     1.1500    20.6320 H     1 LIG   0.0000 
 41 H301     6.9510     1.6000    19.1900 H     1 LIG   0.0000 
 42 H302     5.5460     2.3720    18.8770 H     1 LIG   0.0000 
 43 H331     4.5030     0.2780    18.4150 H     1 LIG   0.0000 
 44 H332     5.7680     0.5200    17.4110 H     1 LIG   0.0000 
 45 H361     5.6180    -1.7220    18.3660 H     1 LIG   0.0000 
 46 H362     7.0700    -0.9940    18.5340 H     1 LIG   0.0000 
 47 H421     6.6800    -2.5180    22.6910 H     1 LIG   0.0000 
 48 H422     5.1240    -2.0220    22.6700 H     1 LIG   0.0000 
 49 H461     7.0600     0.1570    21.4320 H     1 LIG   0.0000 
 50 H462     5.6070    -0.2650    22.0470 H     1 LIG   0.0000 
 51 H491     5.8890     7.1020    22.6140 H     1 LIG   0.0000 
 52 H492     7.0200     7.9140    21.7600 H     1 LIG   0.0000 
 53 H521     6.2470     8.6880    24.0850 H     1 LIG   0.0000 
 54 H522     7.7440     9.0070    23.5150 H     1 LIG   0.0000 
 55 H551     7.9610     8.2010    25.7050 H     1 LIG   0.0000 
 56 H552     7.0750     6.8780    25.3430 H     1 LIG   0.0000 
 57 H11     14.6050     4.3170    23.8280 H     1 LIG   0.0000 
 58 H12     14.3100     5.9140    23.9960 H     1 LIG   0.0000 
@<TRIPOS>BOND
  1   1   2  am  
  2   1  57  1   
  3   1  58  1   
  4   2   3  2   
  5   2   4  2   
  6   2   5  1   
  7   5   6  ar  
  8   5  10  ar  
  9   6   7  ar  
 10   6  29  1   
 11   7   8  ar  
 12   7  30  1   
 13   8   9  ar  
 14   8  28  1   
 15   9  10  ar  
 16   9  11  1   
 17  10  31  1   
 18  11  12  1   
 19  11  26  1   
 20  12  13  1   
 21  12  32  1   
 22  12  33  1   
 23  13  14  1   
 24  13  34  1   
 25  13  35  1   
 26  14  15  1   
 27  14  36  1   
 28  14  37  1   
 29  15  16  1   
 30  15  38  1   
 31  15  39  1   
 32  16  17  1   
 33  16  25  1   
 34  16  40  1   
 35  17  18  1   
 36  17  41  1   
 37  17  42  1   
 38  18  19  1   
 39  18  43  1   
 40  18  44  1   
 41  19  20  1   
 42  19  45  1   
 43  19  46  1   
 44  20  21  am  
 45  20  25  1   
 46  21  22  2   
 47  21  23  1   
 48  23  24  1   
 49  23  47  1   
 50  23  48  1   
 51  25  49  1   
 52  25  50  1   
 53  26  27  1   
 54  26  51  1   
 55  26  52  1   
 56  27  28  1   
 57  27  53  1   
 58  27  54  1   
 59  28  55  1   
 60  28  56  1   
@<TRIPOS>SUBSTRUCTURE
  1 LIG  13 GROUP 4 **** **** 0
@<TRIPOS>PROPERTY_DATA
index	|	ligand502
Name	|	PAU-UNI-f43-1
ChemPlp	|	-92.9103
MM-GBSA Nwat=0	|	17.1287
STDEV0	|	8.4814
MM-GBSA Nwat=30	|	31.3706
STDEV30	|	13.9999
MM-GBSA Nwat=60	|	1.6088
STDEV60	|	12.5325
ST.DEV < 10%	|	N
RMSD LIG < 2	|	
DIST < 5	|	
DIST < 3.5	|	N

# MOE 2019.01 (io_trps.svl 2018.10)

@<TRIPOS>MOLECULE
ligand166
74 77 1 0 0 
SMALL
NO_CHARGES


@<TRIPOS>ATOM
  1 C1       1.8440    -7.8070    25.4070 C.3   1 LIG   0.0000 
  2 C5       2.5360    -7.4360    24.1050 C.3   1 LIG   0.0000 
  3 N6       2.0330    -8.2930    23.0220 N.3   1 LIG   0.0000 
  4 N9       3.9860    -7.6270    24.2490 N.3   1 LIG   0.0000 
  5 C11      4.6600    -6.3220    24.1900 C.3   1 LIG   0.0000 
  6 C12      5.6930    -6.3360    23.0740 C.3   1 LIG   0.0000 
  7 C15      5.9550    -4.9120    22.6100 C.2   1 LIG   0.0000 
  8 N16      6.6840    -4.0590    23.3960 N.am  1 LIG   0.0000 
  9 O19      5.5250    -4.5360    21.5550 O.2   1 LIG   0.0000 
 10 C20      5.3510    -6.0490    25.5160 C.2   1 LIG   0.0000 
 11 O21      5.2470    -6.8320    26.4190 O.2   1 LIG   0.0000 
 12 N22      6.0920    -4.9080    25.6800 N.am  1 LIG   0.0000 
 13 C24      6.7600    -4.6440    26.9630 C.3   1 LIG   0.0000 
 14 C25      8.2400    -4.9880    26.8920 C.3   1 LIG   0.0000 
 15 C28      8.9880    -3.9830    26.0290 C.3   1 LIG   0.0000 
 16 C31      8.8550    -2.5820    26.6070 C.3   1 LIG   0.0000 
 17 C32      9.5550    -1.6250    25.6540 C.2   1 LIG   0.0000 
 18 N33      9.8900    -0.3790    25.8820 N.2   1 LIG   0.0000 
 19 C34     10.5210     0.2870    24.8550 C.ar  1 LIG   0.0000 
 20 C35     11.0190     1.5790    24.7050 C.ar  1 LIG   0.0000 
 21 C37     11.6310     2.0130    23.5310 C.ar  1 LIG   0.0000 
 22 C38     12.1440     3.3630    23.3890 C.ar  1 LIG   0.0000 
 23 C39     12.9240     3.6900    22.2850 C.ar  1 LIG   0.0000 
 24 C41     13.4130     4.9870    22.1570 C.ar  1 LIG   0.0000 
 25 C43     13.1200     5.9400    23.1260 C.ar  1 LIG   0.0000 
 26 O44     13.5950     7.1970    23.0000 O.3   1 LIG   0.0000 
 27 C46     12.3390     5.6010    24.2260 C.ar  1 LIG   0.0000 
 28 S47     11.9780     6.7980    25.4360 S.o2  1 LIG   0.0000 
 29 N48     12.9880     8.0650    25.2660 N.am  1 LIG   0.0000 
 30 O51     10.6180     7.2440    25.2790 O.2   1 LIG   0.0000 
 31 O52     12.1460     6.2230    26.7460 O.2   1 LIG   0.0000 
 32 C53     11.8460     4.3080    24.3650 C.ar  1 LIG   0.0000 
 33 C55     11.7810     1.1790    22.4300 C.ar  1 LIG   0.0000 
 34 C57     11.3050    -0.1190    22.5160 C.ar  1 LIG   0.0000 
 35 C59     10.7100    -0.4710    23.7180 C.ar  1 LIG   0.0000 
 36 S60     10.0520    -1.9950    24.0690 S.3   1 LIG   0.0000 
 37 C61      7.4020    -2.1470    26.7510 C.3   1 LIG   0.0000 
 38 N64      6.5380    -3.2220    27.2720 N.am  1 LIG   0.0000 
 39 C65      5.4590    -2.8910    28.1000 C.2   1 LIG   0.0000 
 40 O66      4.7490    -3.7560    28.5340 O.2   1 LIG   0.0000 
 41 C67      5.1860    -1.4370    28.4500 C.3   1 LIG   0.0000 
 42 CL70     4.2880    -1.3540    29.9840 Cl    1 LIG   0.0000 
 43 H35     10.9350     2.2190    25.4680 H     1 LIG   0.0000 
 44 H55     12.2220     1.5080    21.5950 H     1 LIG   0.0000 
 45 H57     11.3850    -0.7640    21.7560 H     1 LIG   0.0000 
 46 H39     13.1320     3.0010    21.5910 H     1 LIG   0.0000 
 47 H41     13.9740     5.2330    21.3670 H     1 LIG   0.0000 
 48 H53     11.2850     4.0610    25.1550 H     1 LIG   0.0000 
 49 H11      0.8570    -7.6770    25.3090 H     1 LIG   0.0000 
 50 H12      2.0340    -8.7650    25.6240 H     1 LIG   0.0000 
 51 H13      2.1860    -7.2240    26.1440 H     1 LIG   0.0000 
 52 H5       2.3460    -6.4780    23.8880 H     1 LIG   0.0000 
 53 H11      3.9860    -5.6060    24.0120 H     1 LIG   0.0000 
 54 H121     6.5440    -6.7380    23.4120 H     1 LIG   0.0000 
 55 H122     5.3480    -6.8780    22.3080 H     1 LIG   0.0000 
 56 H24      6.3310    -5.2010    27.6740 H     1 LIG   0.0000 
 57 H251     8.3460    -5.9010    26.4980 H     1 LIG   0.0000 
 58 H252     8.6240    -4.9770    27.8150 H     1 LIG   0.0000 
 59 H281     9.9550    -4.2340    25.9950 H     1 LIG   0.0000 
 60 H282     8.6070    -3.9950    25.1050 H     1 LIG   0.0000 
 61 H31      9.3020    -2.5470    27.5010 H     1 LIG   0.0000 
 62 H611     7.3610    -1.3700    27.3790 H     1 LIG   0.0000 
 63 H612     7.0600    -1.8690    25.8530 H     1 LIG   0.0000 
 64 H671     6.0540    -0.9490    28.5440 H     1 LIG   0.0000 
 65 H672     4.6440    -1.0160    27.7230 H     1 LIG   0.0000 
 66 H61      1.0460    -8.1620    22.9240 H     1 LIG   0.0000 
 67 H62      2.4880    -8.0480    22.1650 H     1 LIG   0.0000 
 68 H9       4.3200    -8.2090    23.5080 H     1 LIG   0.0000 
 69 H161     7.0430    -4.3720    24.2760 H     1 LIG   0.0000 
 70 H162     6.8560    -3.1220    23.0910 H     1 LIG   0.0000 
 71 H22      6.1790    -4.2560    24.9270 H     1 LIG   0.0000 
 72 H481    13.9280     7.7690    25.4400 H     1 LIG   0.0000 
 73 H482    12.9190     8.4240    24.3340 H     1 LIG   0.0000 
 74 H44     14.3960     7.4830    23.5260 H     1 LIG   0.0000 
@<TRIPOS>BOND
  1   1   2  1   
  2   1  49  1   
  3   1  50  1   
  4   1  51  1   
  5   2   3  1   
  6   2   4  1   
  7   2  52  1   
  8   3  66  1   
  9   3  67  1   
 10   4   5  1   
 11   4  68  1   
 12   5   6  1   
 13   5  10  1   
 14   5  53  1   
 15   6   7  1   
 16   6  54  1   
 17   6  55  1   
 18   7   8  am  
 19   7   9  2   
 20   8  69  1   
 21   8  70  1   
 22  10  11  2   
 23  10  12  am  
 24  12  13  1   
 25  12  71  1   
 26  13  14  1   
 27  13  38  1   
 28  13  56  1   
 29  14  15  1   
 30  14  57  1   
 31  14  58  1   
 32  15  16  1   
 33  15  59  1   
 34  15  60  1   
 35  16  17  1   
 36  16  37  1   
 37  16  61  1   
 38  17  18  2   
 39  17  36  1   
 40  18  19  1   
 41  19  20  ar  
 42  19  35  ar  
 43  20  21  ar  
 44  20  43  1   
 45  21  22  1   
 46  21  33  ar  
 47  22  23  ar  
 48  22  32  ar  
 49  23  24  ar  
 50  23  46  1   
 51  24  25  ar  
 52  24  47  1   
 53  25  26  1   
 54  25  27  ar  
 55  26  74  1   
 56  27  28  1   
 57  27  32  ar  
 58  28  29  am  
 59  28  30  2   
 60  28  31  2   
 61  29  72  1   
 62  29  73  1   
 63  32  48  1   
 64  33  34  ar  
 65  33  44  1   
 66  34  35  ar  
 67  34  45  1   
 68  35  36  1   
 69  37  38  1   
 70  37  62  1   
 71  37  63  1   
 72  38  39  am  
 73  39  40  2   
 74  39  41  1   
 75  41  42  1   
 76  41  64  1   
 77  41  65  1   
@<TRIPOS>SUBSTRUCTURE
  1 LIG  17 GROUP 4 **** **** 0
@<TRIPOS>PROPERTY_DATA
index	|	ligand166
Name	|	DAV-CRI-f9b-7
ChemPlp	|	-104.857
MM-GBSA Nwat=0	|	17.4625
STDEV0	|	10.4846
MM-GBSA Nwat=30	|	34.8722
STDEV30	|	12.229
MM-GBSA Nwat=60	|	-2.5634
STDEV60	|	13.9152
ST.DEV < 10%	|	N
RMSD LIG < 2	|	
DIST < 5	|	
DIST < 3.5	|	N

# MOE 2019.01 (io_trps.svl 2018.10)

@<TRIPOS>MOLECULE
ligand305
71 76 1 0 0 
SMALL
NO_CHARGES


@<TRIPOS>ATOM
  1 O1       8.3510     5.5670    25.5050 O.2   1 LIG   0.0000 
  2 C2       8.7850     4.4740    25.2690 C.2   1 LIG   0.0000 
  3 C3       7.8500     3.2760    25.2360 C.3   1 LIG   0.0000 
  4 CL6      7.5430     2.8090    23.5460 Cl    1 LIG   0.0000 
  5 N7      10.1510     4.3020    25.0240 N.am  1 LIG   0.0000 
  6 C8      11.1280     5.3980    25.0340 C.3   1 LIG   0.0000 
  7 C11     11.9540     5.2770    23.7630 C.ar  1 LIG   0.0000 
  8 C12     12.7980     6.3350    23.4620 C.ar  1 LIG   0.0000 
  9 C14     13.6010     6.3080    22.3270 C.ar  1 LIG   0.0000 
 10 C16     13.5580     5.2040    21.4800 C.ar  1 LIG   0.0000 
 11 C18     12.7110     4.1430    21.7810 C.ar  1 LIG   0.0000 
 12 C20     11.9080     4.1640    22.9160 C.ar  1 LIG   0.0000 
 13 C21     10.9980     2.9840    23.2210 C.3   1 LIG   0.0000 
 14 C22     11.6850     1.6630    22.9110 C.ar  1 LIG   0.0000 
 15 C23     13.0010     1.4530    23.3080 C.ar  1 LIG   0.0000 
 16 C25     13.6290     0.2460    23.0240 C.ar  1 LIG   0.0000 
 17 C27     12.9410    -0.7530    22.3430 C.ar  1 LIG   0.0000 
 18 C29     11.6250    -0.5440    21.9460 C.ar  1 LIG   0.0000 
 19 C31     10.9960     0.6640    22.2300 C.ar  1 LIG   0.0000 
 20 N32      9.6700     0.8530    21.8210 N.pl3 1 LIG   0.0000 
 21 C35      9.0530    -0.0840    20.8720 C.3   1 LIG   0.0000 
 22 C38      8.6160    -1.3440    21.6120 C.2   1 LIG   0.0000 
 23 C39      9.0330    -1.7010    22.9170 C.2   1 LIG   0.0000 
 24 C41      8.4260    -2.8880    23.2040 C.2   1 LIG   0.0000 
 25 C42      8.5820    -3.6250    24.4430 C.ar  1 LIG   0.0000 
 26 C43      8.5590    -5.0150    24.4330 C.ar  1 LIG   0.0000 
 27 C45      8.7100    -5.7220    25.6220 C.ar  1 LIG   0.0000 
 28 C47      8.8820    -5.0380    26.8210 C.ar  1 LIG   0.0000 
 29 C49      8.9040    -3.6470    26.8310 C.ar  1 LIG   0.0000 
 30 C51      8.7540    -2.9400    25.6430 C.ar  1 LIG   0.0000 
 31 F52      8.7750    -1.6100    25.6530 F     1 LIG   0.0000 
 32 N53      7.6560    -3.2420    22.1300 N.pl3 1 LIG   0.0000 
 33 S54      6.7110    -4.6420    22.0320 S.o2  1 LIG   0.0000 
 34 O55      5.8620    -4.5670    20.8720 O.2   1 LIG   0.0000 
 35 O56      7.5690    -5.7940    21.9270 O.2   1 LIG   0.0000 
 36 C57      5.7280    -4.7790    23.4620 C.ar  1 LIG   0.0000 
 37 C58      5.4880    -6.0320    24.0150 C.ar  1 LIG   0.0000 
 38 C60      4.7030    -6.1410    25.1580 C.ar  1 LIG   0.0000 
 39 C62      4.1730    -4.9850    25.7230 C.ar  1 LIG   0.0000 
 40 N64      4.4150    -3.7860    25.1750 N.ar  1 LIG   0.0000 
 41 C65      5.1700    -3.6610    24.0730 C.ar  1 LIG   0.0000 
 42 C67      7.7610    -2.3080    21.1400 C.2   1 LIG   0.0000 
 43 C69     10.7650     3.0050    24.7200 C.3   1 LIG   0.0000 
 44 H12     12.8300     7.1280    24.0700 H     1 LIG   0.0000 
 45 H14     14.2060     7.0770    22.1200 H     1 LIG   0.0000 
 46 H16     14.1310     5.1750    20.6620 H     1 LIG   0.0000 
 47 H18     12.6800     3.3500    21.1720 H     1 LIG   0.0000 
 48 H23     13.4950     2.1710    23.7990 H     1 LIG   0.0000 
 49 H25     14.5760     0.0950    23.3090 H     1 LIG   0.0000 
 50 H27     13.3930    -1.6210    22.1390 H     1 LIG   0.0000 
 51 H29     11.1300    -1.2620    21.4570 H     1 LIG   0.0000 
 52 H39      9.6510    -1.1860    23.5100 H     1 LIG   0.0000 
 53 H67      7.3070    -2.3230    20.2500 H     1 LIG   0.0000 
 54 H43      8.4350    -5.5070    23.5710 H     1 LIG   0.0000 
 55 H45      8.6950    -6.7220    25.6140 H     1 LIG   0.0000 
 56 H47      8.9890    -5.5460    27.6760 H     1 LIG   0.0000 
 57 H49      9.0280    -3.1560    27.6930 H     1 LIG   0.0000 
 58 H58      5.8790    -6.8500    23.5940 H     1 LIG   0.0000 
 59 H60      4.5230    -7.0360    25.5670 H     1 LIG   0.0000 
 60 H62      3.6060    -5.0500    26.5450 H     1 LIG   0.0000 
 61 H65      5.3340    -2.7530    23.6870 H     1 LIG   0.0000 
 62 H31      8.2720     2.5100    25.7210 H     1 LIG   0.0000 
 63 H32      6.9860     3.5150    25.6780 H     1 LIG   0.0000 
 64 H81     11.7200     5.3210    25.8360 H     1 LIG   0.0000 
 65 H82     10.6540     6.2780    25.0530 H     1 LIG   0.0000 
 66 H21     10.1330     3.0630    22.7240 H     1 LIG   0.0000 
 67 H351     9.7170    -0.3270    20.1640 H     1 LIG   0.0000 
 68 H352     8.2570     0.3470    20.4480 H     1 LIG   0.0000 
 69 H691    10.1520     2.2610    24.9860 H     1 LIG   0.0000 
 70 H692    11.6330     2.9110    25.2070 H     1 LIG   0.0000 
 71 H32      9.1430     1.6260    22.1760 H     1 LIG   0.0000 
@<TRIPOS>BOND
  1   1   2  2   
  2   2   3  1   
  3   2   5  am  
  4   3   4  1   
  5   3  62  1   
  6   3  63  1   
  7   5   6  1   
  8   5  43  1   
  9   6   7  1   
 10   6  64  1   
 11   6  65  1   
 12   7   8  ar  
 13   7  12  ar  
 14   8   9  ar  
 15   8  44  1   
 16   9  10  ar  
 17   9  45  1   
 18  10  11  ar  
 19  10  46  1   
 20  11  12  ar  
 21  11  47  1   
 22  12  13  1   
 23  13  14  1   
 24  13  43  1   
 25  13  66  1   
 26  14  15  ar  
 27  14  19  ar  
 28  15  16  ar  
 29  15  48  1   
 30  16  17  ar  
 31  16  49  1   
 32  17  18  ar  
 33  17  50  1   
 34  18  19  ar  
 35  18  51  1   
 36  19  20  1   
 37  20  21  1   
 38  20  71  1   
 39  21  22  1   
 40  21  67  1   
 41  21  68  1   
 42  22  23  1   
 43  22  42  2   
 44  23  24  2   
 45  23  52  1   
 46  24  25  1   
 47  24  32  1   
 48  25  26  ar  
 49  25  30  ar  
 50  26  27  ar  
 51  26  54  1   
 52  27  28  ar  
 53  27  55  1   
 54  28  29  ar  
 55  28  56  1   
 56  29  30  ar  
 57  29  57  1   
 58  30  31  1   
 59  32  33  1   
 60  32  42  1   
 61  33  34  2   
 62  33  35  2   
 63  33  36  1   
 64  36  37  ar  
 65  36  41  ar  
 66  37  38  ar  
 67  37  58  1   
 68  38  39  ar  
 69  38  59  1   
 70  39  40  ar  
 71  39  60  1   
 72  40  41  ar  
 73  41  61  1   
 74  42  53  1   
 75  43  69  1   
 76  43  70  1   
@<TRIPOS>SUBSTRUCTURE
  1 LIG  23 GROUP 4 **** **** 0
@<TRIPOS>PROPERTY_DATA
index	|	ligand305
Name	|	MAK-UNK-702-12
ChemPlp	|	-103.069
MM-GBSA Nwat=0	|	39.5309
STDEV0	|	9.098
MM-GBSA Nwat=30	|	36.9668
STDEV30	|	12.7779
MM-GBSA Nwat=60	|	8.1092
STDEV60	|	13.2316
ST.DEV < 10%	|	N
RMSD LIG < 2	|	
DIST < 5	|	
DIST < 3.5	|	N

# MOE 2019.01 (io_trps.svl 2018.10)

@<TRIPOS>MOLECULE
ligand313
72 77 1 0 0 
SMALL
USER_CHARGES


@<TRIPOS>ATOM
  1 O1       6.7960     2.0140    21.1760 O.2   1 LIG   0.0000 
  2 C2       7.2310     2.8150    21.9570 C.2   1 LIG   0.0000 
  3 C3       6.2900     3.7840    22.6540 C.3   1 LIG   0.0000 
  4 H4       5.3550     3.6280    22.3360 H     1 LIG   0.0000 
  5 H5       6.3340     3.6400    23.6430 H     1 LIG   0.0000 
  6 CL6      6.7730     5.4550    22.2760 Cl    1 LIG   0.0000 
  7 N7       8.6040     2.8560    22.2270 N.am  1 LIG   0.0000 
  8 C8       9.4720     1.8990    21.5290 C.3   1 LIG   0.0000 
  9 H9       9.7320     2.2650    20.6360 H     1 LIG   0.0000 
 10 H10      8.9910     1.0310    21.4060 H     1 LIG   0.0000 
 11 C11     10.7130     1.6840    22.3790 C.ar  1 LIG   0.0000 
 12 C12     11.3040     0.4270    22.4580 C.ar  1 LIG   0.0000 
 13 N13     10.7680    -0.7350    21.7340 N.4   1 LIG   1.0000 
 14 H14     11.3980    -0.9920    21.0010 H     1 LIG   0.0000 
 15 H15      9.8780    -0.5020    21.3420 H     1 LIG   0.0000 
 16 C16     10.6140    -1.8630    22.6640 C.3   1 LIG   0.0000 
 17 H17     10.6510    -1.5260    23.6050 H     1 LIG   0.0000 
 18 H18     11.3520    -2.5210    22.5160 H     1 LIG   0.0000 
 19 C19      9.2700    -2.5430    22.4210 C.2   1 LIG   0.0000 
 20 C20      8.7120    -3.5500    23.2440 C.2   1 LIG   0.0000 
 21 H21      9.1140    -3.9360    24.0750 H     1 LIG   0.0000 
 22 C22      7.5180    -3.8920    22.6800 C.2   1 LIG   0.0000 
 23 C23      6.6110    -4.8990    23.1960 C.ar  1 LIG   0.0000 
 24 C24      5.8630    -5.6760    22.3180 C.ar  1 LIG   0.0000 
 25 H25      5.9500    -5.5390    21.3320 H     1 LIG   0.0000 
 26 C26      4.9940    -6.6420    22.8130 C.ar  1 LIG   0.0000 
 27 H27      4.4570    -7.2020    22.1820 H     1 LIG   0.0000 
 28 C28      4.8720    -6.8310    24.1860 C.ar  1 LIG   0.0000 
 29 H29      4.2460    -7.5250    24.5420 H     1 LIG   0.0000 
 30 C30      5.6200    -6.0540    25.0640 C.ar  1 LIG   0.0000 
 31 H31      5.5330    -6.1900    26.0510 H     1 LIG   0.0000 
 32 C32      6.4890    -5.0870    24.5700 C.ar  1 LIG   0.0000 
 33 F33      7.2050    -4.3440    25.4100 F     1 LIG   0.0000 
 34 N34      7.3390    -3.1200    21.5650 N.pl3 1 LIG   0.0000 
 35 S35      5.9930    -3.1880    20.5440 S.o2  1 LIG   0.0000 
 36 O36      6.1240    -4.3100    19.6510 O.2   1 LIG   0.0000 
 37 O37      4.7980    -3.3390    21.3330 O.2   1 LIG   0.0000 
 38 C38      5.8930    -1.7180    19.6170 C.ar  1 LIG   0.0000 
 39 C39      5.3000    -0.5910    20.1750 C.ar  1 LIG   0.0000 
 40 H40      4.9320    -0.6240    21.1040 H     1 LIG   0.0000 
 41 C41      5.2210     0.5830    19.4340 C.ar  1 LIG   0.0000 
 42 H42      4.7980     1.4020    19.8220 H     1 LIG   0.0000 
 43 C43      5.7410     0.6020    18.1430 C.ar  1 LIG   0.0000 
 44 H44      5.6910     1.4400    17.6000 H     1 LIG   0.0000 
 45 N45      6.3100    -0.4960    17.6230 N.ar  1 LIG   0.0000 
 46 C46      6.3950    -1.6380    18.3220 C.ar  1 LIG   0.0000 
 47 H47      6.8240    -2.4400    17.9080 H     1 LIG   0.0000 
 48 C48      8.4060    -2.2870    21.3860 C.2   1 LIG   0.0000 
 49 H49      8.5320    -1.6230    20.6490 H     1 LIG   0.0000 
 50 C50     12.4400     0.2510    23.2420 C.ar  1 LIG   0.0000 
 51 H51     12.8620    -0.6540    23.2970 H     1 LIG   0.0000 
 52 C52     13.0000     1.3080    23.9500 C.ar  1 LIG   0.0000 
 53 H53     13.8180     1.1700    24.5090 H     1 LIG   0.0000 
 54 C54     12.4030     2.5560    23.8670 C.ar  1 LIG   0.0000 
 55 H55     12.7930     3.3270    24.3700 H     1 LIG   0.0000 
 56 C56     11.2660     2.7440    23.0900 C.ar  1 LIG   0.0000 
 57 C57     10.6100     4.1110    23.0040 C.3   1 LIG   0.0000 
 58 C58     11.0090     5.0650    24.1180 C.ar  1 LIG   0.0000 
 59 C59     11.9780     6.0350    23.8810 C.ar  1 LIG   0.0000 
 60 H60     12.4100     6.1060    22.9820 H     1 LIG   0.0000 
 61 C61     12.3410     6.9050    24.9040 C.ar  1 LIG   0.0000 
 62 H62     13.0370     7.6040    24.7410 H     1 LIG   0.0000 
 63 C63     11.7350     6.8030    26.1520 C.ar  1 LIG   0.0000 
 64 H64     11.9960     7.4290    26.8860 H     1 LIG   0.0000 
 65 C65     10.7680     5.8310    26.3770 C.ar  1 LIG   0.0000 
 66 H66     10.3360     5.7600    27.2760 H     1 LIG   0.0000 
 67 C67     10.3970     4.9540    25.3620 C.ar  1 LIG   0.0000 
 68 H68      9.7020     4.2540    25.5250 H     1 LIG   0.0000 
 69 C69      9.1290     3.8360    23.1940 C.3   1 LIG   0.0000 
 70 H70      8.9850     3.4830    24.1180 H     1 LIG   0.0000 
 71 H71      8.6270     4.6940    23.0830 H     1 LIG   0.0000 
 72 H72     10.7790     4.5250    22.1090 H     1 LIG   0.0000 
@<TRIPOS>BOND
  1   1   2  2   
  2   2   3  1   
  3   2   7  am  
  4   3   4  1   
  5   3   5  1   
  6   3   6  1   
  7   7   8  1   
  8   7  69  1   
  9   8   9  1   
 10   8  10  1   
 11   8  11  1   
 12  11  12  ar  
 13  11  56  ar  
 14  12  13  1   
 15  12  50  ar  
 16  13  14  1   
 17  13  15  1   
 18  13  16  1   
 19  16  17  1   
 20  16  18  1   
 21  16  19  1   
 22  19  20  1   
 23  19  48  2   
 24  20  21  1   
 25  20  22  2   
 26  22  23  1   
 27  22  34  1   
 28  23  24  ar  
 29  23  32  ar  
 30  24  25  1   
 31  24  26  ar  
 32  26  27  1   
 33  26  28  ar  
 34  28  29  1   
 35  28  30  ar  
 36  30  31  1   
 37  30  32  ar  
 38  32  33  1   
 39  34  35  1   
 40  34  48  1   
 41  35  36  2   
 42  35  37  2   
 43  35  38  1   
 44  38  39  ar  
 45  38  46  ar  
 46  39  40  1   
 47  39  41  ar  
 48  41  42  1   
 49  41  43  ar  
 50  43  44  1   
 51  43  45  ar  
 52  45  46  ar  
 53  46  47  1   
 54  48  49  1   
 55  50  51  1   
 56  50  52  ar  
 57  52  53  1   
 58  52  54  ar  
 59  54  55  1   
 60  54  56  ar  
 61  56  57  1   
 62  57  58  1   
 63  57  69  1   
 64  57  72  1   
 65  58  59  ar  
 66  58  67  ar  
 67  59  60  1   
 68  59  61  ar  
 69  61  62  1   
 70  61  63  ar  
 71  63  64  1   
 72  63  65  ar  
 73  65  66  1   
 74  65  67  ar  
 75  67  68  1   
 76  69  70  1   
 77  69  71  1   
@<TRIPOS>SUBSTRUCTURE
  1 LIG   8 GROUP 4 **** **** 0
@<TRIPOS>PROPERTY_DATA
index	|	ligand313
Name	|	MAK-UNK-702-8
ChemPlp	|	-101.54
MM-GBSA Nwat=0	|	40.672
STDEV0	|	7.295
MM-GBSA Nwat=30	|	39.0515
STDEV30	|	14.8226
MM-GBSA Nwat=60	|	17.2065
STDEV60	|	14.1524
ST.DEV < 10%	|	N
RMSD LIG < 2	|	
DIST < 5	|	
DIST < 3.5	|	N

# MOE 2019.01 (io_trps.svl 2018.10)

@<TRIPOS>MOLECULE
ligand385
56 57 1 0 0 
SMALL
NO_CHARGES


@<TRIPOS>ATOM
  1 C1       6.6890    -5.5250    20.8040 C.3   1 LIG   0.0000 
  2 C5       6.4000    -4.1260    21.3230 C.2   1 LIG   0.0000 
  3 O6       5.5110    -3.4790    20.8410 O.2   1 LIG   0.0000 
  4 N7       7.1530    -3.6040    22.3410 N.am  1 LIG   0.0000 
  5 C9       6.8730    -2.2510    22.8430 C.3   1 LIG   0.0000 
  6 C10      7.0120    -1.2500    21.7070 C.2   1 LIG   0.0000 
  7 O11      8.0370    -1.1840    21.0870 O.2   1 LIG   0.0000 
  8 N12      5.9660    -0.4240    21.3910 N.am  1 LIG   0.0000 
  9 C14      6.0990     0.5440    20.2930 C.3   1 LIG   0.0000 
 10 C17      4.7760     1.2620    20.0860 C.1   1 LIG   0.0000 
 11 C18      3.7390     1.8250    19.9250 C.1   1 LIG   0.0000 
 12 BR19     2.0330     2.7510    19.6590 Br    1 LIG   0.0000 
 13 C20      7.8610    -1.9050    23.9460 C.3   1 LIG   0.0000 
 14 C21      7.9690    -3.0730    24.9130 C.ar  1 LIG   0.0000 
 15 C22      9.0770    -3.9120    24.8520 C.ar  1 LIG   0.0000 
 16 C24      9.1800    -4.9810    25.7360 C.ar  1 LIG   0.0000 
 17 C26      8.1730    -5.1970    26.6710 C.ar  1 LIG   0.0000 
 18 O27      8.2690    -6.2340    27.5300 O.3   1 LIG   0.0000 
 19 C29      7.0630    -4.3610    26.7360 C.ar  1 LIG   0.0000 
 20 C31      6.9640    -3.2940    25.8500 C.ar  1 LIG   0.0000 
 21 S33      7.2840    -0.4370    24.8340 S.o2  1 LIG   0.0000 
 22 O34      7.1960     0.6720    23.9200 O.2   1 LIG   0.0000 
 23 O35      5.9860    -0.6980    25.4000 O.2   1 LIG   0.0000 
 24 N36      8.3350    -0.0760    26.0270 N.am  1 LIG   0.0000 
 25 C38      9.7080    -0.3140    25.5590 C.3   1 LIG   0.0000 
 26 C41     10.0160     0.6150    24.3970 C.3   1 LIG   0.0000 
 27 C44     11.2840     0.1510    23.6980 C.ar  1 LIG   0.0000 
 28 C45     11.2640    -1.0110    22.9340 C.ar  1 LIG   0.0000 
 29 C47     12.4260    -1.4320    22.2970 C.ar  1 LIG   0.0000 
 30 C49     13.5970    -0.6930    22.4270 C.ar  1 LIG   0.0000 
 31 C51     13.6060     0.4660    23.1920 C.ar  1 LIG   0.0000 
 32 C53     12.4500     0.8980    23.8340 C.ar  1 LIG   0.0000 
 33 H22      9.7950    -3.7470    24.1770 H     1 LIG   0.0000 
 34 H24      9.9730    -5.5890    25.7000 H     1 LIG   0.0000 
 35 H29      6.3440    -4.5260    27.4110 H     1 LIG   0.0000 
 36 H31      6.1720    -2.6850    25.8860 H     1 LIG   0.0000 
 37 H45     10.4200    -1.5390    22.8430 H     1 LIG   0.0000 
 38 H47     12.4200    -2.2670    21.7470 H     1 LIG   0.0000 
 39 H49     14.4330    -0.9960    21.9680 H     1 LIG   0.0000 
 40 H51     14.4500     0.9950    23.2820 H     1 LIG   0.0000 
 41 H53     12.4560     1.7330    24.3850 H     1 LIG   0.0000 
 42 H11      7.4550    -5.9180    21.3130 H     1 LIG   0.0000 
 43 H12      5.8790    -6.0990    20.9240 H     1 LIG   0.0000 
 44 H13      6.9230    -5.4780    19.8320 H     1 LIG   0.0000 
 45 H9       5.9420    -2.2160    23.2060 H     1 LIG   0.0000 
 46 H141     6.3520     0.0630    19.4530 H     1 LIG   0.0000 
 47 H142     6.8080     1.2110    20.5210 H     1 LIG   0.0000 
 48 H20      8.7580    -1.7210    23.5440 H     1 LIG   0.0000 
 49 H381     9.7980    -1.2640    25.2590 H     1 LIG   0.0000 
 50 H382    10.3500    -0.1380    26.3060 H     1 LIG   0.0000 
 51 H411     9.2540     0.6020    23.7480 H     1 LIG   0.0000 
 52 H412    10.1450     1.5460    24.7390 H     1 LIG   0.0000 
 53 H7       7.8930    -4.1430    22.7420 H     1 LIG   0.0000 
 54 H12      5.1110    -0.4790    21.9080 H     1 LIG   0.0000 
 55 H36      8.1480    -0.6540    26.8210 H     1 LIG   0.0000 
 56 H27      9.1660    -6.5230    27.8660 H     1 LIG   0.0000 
@<TRIPOS>BOND
  1   1   2  1   
  2   1  42  1   
  3   1  43  1   
  4   1  44  1   
  5   2   3  2   
  6   2   4  am  
  7   4   5  1   
  8   4  53  1   
  9   5   6  1   
 10   5  13  1   
 11   5  45  1   
 12   6   7  2   
 13   6   8  am  
 14   8   9  1   
 15   8  54  1   
 16   9  10  1   
 17   9  46  1   
 18   9  47  1   
 19  10  11  3   
 20  11  12  1   
 21  13  14  1   
 22  13  21  1   
 23  13  48  1   
 24  14  15  ar  
 25  14  20  ar  
 26  15  16  ar  
 27  15  33  1   
 28  16  17  ar  
 29  16  34  1   
 30  17  18  1   
 31  17  19  ar  
 32  18  56  1   
 33  19  20  ar  
 34  19  35  1   
 35  20  36  1   
 36  21  22  2   
 37  21  23  2   
 38  21  24  am  
 39  24  25  1   
 40  24  55  1   
 41  25  26  1   
 42  25  49  1   
 43  25  50  1   
 44  26  27  1   
 45  26  51  1   
 46  26  52  1   
 47  27  28  ar  
 48  27  32  ar  
 49  28  29  ar  
 50  28  37  1   
 51  29  30  ar  
 52  29  38  1   
 53  30  31  ar  
 54  30  39  1   
 55  31  32  ar  
 56  31  40  1   
 57  32  41  1   
@<TRIPOS>SUBSTRUCTURE
  1 LIG  13 GROUP 4 **** **** 0
@<TRIPOS>PROPERTY_DATA
index	|	ligand385
Name	|	MAK-UNK-c44-5
ChemPlp	|	-105
MM-GBSA Nwat=0	|	41.2637
STDEV0	|	16.2727
MM-GBSA Nwat=30	|	39.2258
STDEV30	|	16.8363
MM-GBSA Nwat=60	|	22.7712
STDEV60	|	19.9712
ST.DEV < 10%	|	N
RMSD LIG < 2	|	
DIST < 5	|	
DIST < 3.5	|	N

# MOE 2019.01 (io_trps.svl 2018.10)

@<TRIPOS>MOLECULE
ligand347
75 78 1 0 0 
SMALL
USER_CHARGES


@<TRIPOS>ATOM
  1 C1      11.8850     0.6680    25.2690 C.3   1 LIG   0.0000 
  2 C5      10.9430     0.1360    24.2020 C.3   1 LIG   0.0000 
  3 C7       9.6190     0.8780    24.2790 C.3   1 LIG   0.0000 
  4 C11     11.5620     0.3460    22.8300 C.3   1 LIG   0.0000 
  5 C12     13.0320    -0.0400    22.8720 C.3   1 LIG   0.0000 
  6 N16     10.8640    -0.4920    21.8440 N.4   1 LIG   1.0000 
  7 C19     10.8650    -1.8890    22.3000 C.3   1 LIG   0.0000 
  8 C22      9.4710    -2.4830    22.1210 C.2   1 LIG   0.0000 
  9 C23      8.9080    -3.4880    22.9440 C.2   1 LIG   0.0000 
 10 C25      7.6630    -3.7400    22.4480 C.2   1 LIG   0.0000 
 11 C26      6.7330    -4.7140    22.9880 C.ar  1 LIG   0.0000 
 12 C27      5.8960    -5.4220    22.1340 C.ar  1 LIG   0.0000 
 13 C29      5.0040    -6.3570    22.6510 C.ar  1 LIG   0.0000 
 14 C31      4.9500    -6.5810    24.0230 C.ar  1 LIG   0.0000 
 15 C33      5.7870    -5.8720    24.8770 C.ar  1 LIG   0.0000 
 16 C35      6.6790    -4.9380    24.3600 C.ar  1 LIG   0.0000 
 17 F36      7.4800    -4.2590    25.1770 F     1 LIG   0.0000 
 18 N37      7.4590    -2.9180    21.3740 N.pl3 1 LIG   0.0000 
 19 S38      6.0500    -2.8720    20.4400 S.o2  1 LIG   0.0000 
 20 O39      6.0640    -3.9580    19.4950 O.2   1 LIG   0.0000 
 21 O40      4.9010    -2.9980    21.2990 O.2   1 LIG   0.0000 
 22 C41      5.9700    -1.3590    19.5840 C.ar  1 LIG   0.0000 
 23 C42      5.9570    -0.1650    20.2960 C.ar  1 LIG   0.0000 
 24 C44      5.8940     1.0440    19.6110 C.ar  1 LIG   0.0000 
 25 C46      5.8450     1.0280    18.2210 C.ar  1 LIG   0.0000 
 26 N48      5.8580    -0.1340    17.5520 N.ar  1 LIG   0.0000 
 27 C49      5.9190    -1.3100    18.1950 C.ar  1 LIG   0.0000 
 28 C51      8.5600    -2.1400    21.1540 C.2   1 LIG   0.0000 
 29 C53     11.4330     1.8080    22.4340 C.2   1 LIG   0.0000 
 30 O54     10.7880     2.1140    21.4700 O.2   1 LIG   0.0000 
 31 C55     12.1220     2.8820    23.2600 C.3   1 LIG   0.0000 
 32 C57     12.6100     3.9620    22.3040 C.3   1 LIG   0.0000 
 33 C60     13.2480     5.1350    23.0360 C.3   1 LIG   0.0000 
 34 N63     12.4400     5.5710    24.1860 N.am  1 LIG   0.0000 
 35 C64     12.4530     6.9260    24.5280 C.2   1 LIG   0.0000 
 36 O65     13.1100     7.7000    23.8880 O.2   1 LIG   0.0000 
 37 C66     11.6340     7.4200    25.7090 C.3   1 LIG   0.0000 
 38 CL69    12.5950     7.2750    27.2000 Cl    1 LIG   0.0000 
 39 C70     11.6180     4.6540    24.9930 C.3   1 LIG   0.0000 
 40 C73     11.0650     3.5030    24.1630 C.3   1 LIG   0.0000 
 41 H23      9.3380    -3.9260    23.7330 H     1 LIG   0.0000 
 42 H51      8.6780    -1.4570    20.4340 H     1 LIG   0.0000 
 43 H27      5.9340    -5.2610    21.1480 H     1 LIG   0.0000 
 44 H29      4.4030    -6.8670    22.0360 H     1 LIG   0.0000 
 45 H31      4.3080    -7.2520    24.3950 H     1 LIG   0.0000 
 46 H33      5.7490    -6.0330    25.8630 H     1 LIG   0.0000 
 47 H42      5.9930    -0.1750    21.2960 H     1 LIG   0.0000 
 48 H44      5.8840     1.9110    20.1100 H     1 LIG   0.0000 
 49 H46      5.8000     1.8910    17.7160 H     1 LIG   0.0000 
 50 H49      5.9280    -2.1600    17.6700 H     1 LIG   0.0000 
 51 H11     11.4780     0.5290    26.1720 H     1 LIG   0.0000 
 52 H12     12.7570     0.1800    25.2180 H     1 LIG   0.0000 
 53 H13     12.0410     1.6440    25.1200 H     1 LIG   0.0000 
 54 H5      10.7870    -0.8410    24.3510 H     1 LIG   0.0000 
 55 H71      9.2120     0.7390    25.1820 H     1 LIG   0.0000 
 56 H72      9.7740     1.8540    24.1300 H     1 LIG   0.0000 
 57 H73      8.9990     0.5280    23.5770 H     1 LIG   0.0000 
 58 H121    13.5060     0.5300    23.5430 H     1 LIG   0.0000 
 59 H122    13.1160    -1.0020    23.1320 H     1 LIG   0.0000 
 60 H123    13.4390     0.0980    21.9690 H     1 LIG   0.0000 
 61 H161    11.3310    -0.4280    20.9620 H     1 LIG   0.0000 
 62 H162     9.9210    -0.1740    21.7440 H     1 LIG   0.0000 
 63 H191    11.1210    -1.9240    23.2660 H     1 LIG   0.0000 
 64 H192    11.5230    -2.4150    21.7610 H     1 LIG   0.0000 
 65 H55     12.8770     2.5020    23.7940 H     1 LIG   0.0000 
 66 H571    11.8320     4.2980    21.7740 H     1 LIG   0.0000 
 67 H572    13.2870     3.5620    21.6860 H     1 LIG   0.0000 
 68 H601    14.1520     4.8590    23.3610 H     1 LIG   0.0000 
 69 H602    13.3420     5.9000    22.3980 H     1 LIG   0.0000 
 70 H661    11.3850     8.3770    25.5650 H     1 LIG   0.0000 
 71 H662    10.8040     6.8680    25.7930 H     1 LIG   0.0000 
 72 H701    10.8530     5.1660    25.3840 H     1 LIG   0.0000 
 73 H702    12.1800     4.2790    25.7300 H     1 LIG   0.0000 
 74 H731    10.7160     2.7990    24.7820 H     1 LIG   0.0000 
 75 H732    10.3180     3.8470    23.5940 H     1 LIG   0.0000 
@<TRIPOS>BOND
  1   1   2  1   
  2   1  51  1   
  3   1  52  1   
  4   1  53  1   
  5   2   3  1   
  6   2   4  1   
  7   2  54  1   
  8   3  55  1   
  9   3  56  1   
 10   3  57  1   
 11   4   5  1   
 12   4   6  1   
 13   4  29  1   
 14   5  58  1   
 15   5  59  1   
 16   5  60  1   
 17   6   7  1   
 18   6  61  1   
 19   6  62  1   
 20   7   8  1   
 21   7  63  1   
 22   7  64  1   
 23   8   9  1   
 24   8  28  2   
 25   9  10  2   
 26   9  41  1   
 27  10  11  1   
 28  10  18  1   
 29  11  12  ar  
 30  11  16  ar  
 31  12  13  ar  
 32  12  43  1   
 33  13  14  ar  
 34  13  44  1   
 35  14  15  ar  
 36  14  45  1   
 37  15  16  ar  
 38  15  46  1   
 39  16  17  1   
 40  18  19  1   
 41  18  28  1   
 42  19  20  2   
 43  19  21  2   
 44  19  22  1   
 45  22  23  ar  
 46  22  27  ar  
 47  23  24  ar  
 48  23  47  1   
 49  24  25  ar  
 50  24  48  1   
 51  25  26  ar  
 52  25  49  1   
 53  26  27  ar  
 54  27  50  1   
 55  28  42  1   
 56  29  30  2   
 57  29  31  1   
 58  31  32  1   
 59  31  40  1   
 60  31  65  1   
 61  32  33  1   
 62  32  66  1   
 63  32  67  1   
 64  33  34  1   
 65  33  68  1   
 66  33  69  1   
 67  34  35  am  
 68  34  39  1   
 69  35  36  2   
 70  35  37  1   
 71  37  38  1   
 72  37  70  1   
 73  37  71  1   
 74  39  40  1   
 75  39  72  1   
 76  39  73  1   
 77  40  74  1   
 78  40  75  1   
@<TRIPOS>SUBSTRUCTURE
  1 LIG   6 GROUP 4 **** **** 0
@<TRIPOS>PROPERTY_DATA
index	|	ligand347
Name	|	MAK-UNK-8fd-40
ChemPlp	|	-97.9176
MM-GBSA Nwat=0	|	23.525
STDEV0	|	4.5589
MM-GBSA Nwat=30	|	40.734
STDEV30	|	13.5206
MM-GBSA Nwat=60	|	3.2116
STDEV60	|	12.9202
ST.DEV < 10%	|	N
RMSD LIG < 2	|	
DIST < 5	|	
DIST < 3.5	|	N

# MOE 2019.01 (io_trps.svl 2018.10)

@<TRIPOS>MOLECULE
ligand342
73 76 1 0 0 
SMALL
NO_CHARGES


@<TRIPOS>ATOM
  1 C1       6.6080     7.5690    21.4430 C.3   1 LIG   0.0000 
  2 C5       7.3430     7.3670    22.7580 C.3   1 LIG   0.0000 
  3 C7       6.4690     7.8450    23.9060 C.3   1 LIG   0.0000 
  4 N11      7.6470     5.9400    22.9350 N.am  1 LIG   0.0000 
  5 C12      6.5900     4.9350    22.7510 C.3   1 LIG   0.0000 
  6 C16      8.9150     5.5460    23.2720 C.2   1 LIG   0.0000 
  7 O17      9.7780     6.3660    23.4220 O.2   1 LIG   0.0000 
  8 C18      9.2300     4.0700    23.4550 C.3   1 LIG   0.0000 
  9 C19     10.7010     3.9670    23.8320 C.3   1 LIG   0.0000 
 10 C22     11.1630     2.5270    24.0070 C.3   1 LIG   0.0000 
 11 N25     10.6460     1.6340    22.9550 N.am  1 LIG   0.0000 
 12 C26     11.4320     0.5460    22.5520 C.2   1 LIG   0.0000 
 13 O27     11.0350    -0.1970    21.6980 O.2   1 LIG   0.0000 
 14 C28     12.7870     0.3070    23.1970 C.3   1 LIG   0.0000 
 15 CL31    13.6060    -1.0430    22.3760 Cl    1 LIG   0.0000 
 16 C32      9.3370     1.8380    22.3110 C.3   1 LIG   0.0000 
 17 N33      9.2580     1.2130    20.9820 N.3   1 LIG   0.0000 
 18 C36      7.9040     0.6820    20.7700 C.3   1 LIG   0.0000 
 19 C39      7.8020    -0.7110    21.3810 C.2   1 LIG   0.0000 
 20 C40      8.3620    -1.0930    22.6240 C.2   1 LIG   0.0000 
 21 C42      8.0530    -2.4100    22.7980 C.2   1 LIG   0.0000 
 22 C43      8.4400    -3.2110    23.9430 C.ar  1 LIG   0.0000 
 23 C44      8.7280    -4.5620    23.7800 C.ar  1 LIG   0.0000 
 24 C46      9.1000    -5.3310    24.8780 C.ar  1 LIG   0.0000 
 25 C48      9.1830    -4.7480    26.1390 C.ar  1 LIG   0.0000 
 26 C50      8.8950    -3.3980    26.3020 C.ar  1 LIG   0.0000 
 27 C52      8.5230    -2.6290    25.2040 C.ar  1 LIG   0.0000 
 28 F53      8.2480    -1.3370    25.3600 F     1 LIG   0.0000 
 29 N54      7.3210    -2.8210    21.7180 N.pl3 1 LIG   0.0000 
 30 S55      6.7090    -4.3820    21.4980 S.o2  1 LIG   0.0000 
 31 O56      5.8010    -4.3880    20.3800 O.2   1 LIG   0.0000 
 32 O57      7.7940    -5.2920    21.2390 O.2   1 LIG   0.0000 
 33 C58      5.8640    -4.8810    22.9350 C.ar  1 LIG   0.0000 
 34 C59      5.6940    -6.2360    23.1980 C.ar  1 LIG   0.0000 
 35 C61      5.0190    -6.6350    24.3470 C.ar  1 LIG   0.0000 
 36 C63      4.5260    -5.6610    25.2110 C.ar  1 LIG   0.0000 
 37 N65      4.7000    -4.3590    24.9390 N.ar  1 LIG   0.0000 
 38 C66      5.3480    -3.9560    23.8360 C.ar  1 LIG   0.0000 
 39 C68      7.1590    -1.7930    20.8340 C.2   1 LIG   0.0000 
 40 C70      9.0460     3.3220    22.1440 C.3   1 LIG   0.0000 
 41 H40      8.8820    -0.5120    23.2500 H     1 LIG   0.0000 
 42 H68      6.6690    -1.8230    19.9630 H     1 LIG   0.0000 
 43 H44      8.6670    -4.9800    22.8740 H     1 LIG   0.0000 
 44 H46      9.3080    -6.3020    24.7610 H     1 LIG   0.0000 
 45 H48      9.4500    -5.3020    26.9290 H     1 LIG   0.0000 
 46 H50      8.9560    -2.9790    27.2080 H     1 LIG   0.0000 
 47 H59      6.0550    -6.9200    22.5650 H     1 LIG   0.0000 
 48 H61      4.8890    -7.6060    24.5490 H     1 LIG   0.0000 
 49 H63      4.0390    -5.9340    26.0400 H     1 LIG   0.0000 
 50 H66      5.4630    -2.9780    23.6600 H     1 LIG   0.0000 
 51 H11      6.4010     8.5400    21.3220 H     1 LIG   0.0000 
 52 H12      7.1830     7.2540    20.6880 H     1 LIG   0.0000 
 53 H13      5.7560     7.0460    21.4540 H     1 LIG   0.0000 
 54 H5       8.1950     7.8900    22.7470 H     1 LIG   0.0000 
 55 H71      6.2620     8.8160    23.7850 H     1 LIG   0.0000 
 56 H72      5.6170     7.3220    23.9160 H     1 LIG   0.0000 
 57 H73      6.9530     7.7130    24.7710 H     1 LIG   0.0000 
 58 H121     5.7340     5.3920    22.5100 H     1 LIG   0.0000 
 59 H122     6.8510     4.3070    22.0180 H     1 LIG   0.0000 
 60 H123     6.4660     4.4220    23.6010 H     1 LIG   0.0000 
 61 H18      8.6540     3.6740    24.1700 H     1 LIG   0.0000 
 62 H191    10.8460     4.4570    24.6920 H     1 LIG   0.0000 
 63 H192    11.2470     4.3930    23.1100 H     1 LIG   0.0000 
 64 H221    12.1630     2.5060    23.9830 H     1 LIG   0.0000 
 65 H222    10.8440     2.1940    24.8950 H     1 LIG   0.0000 
 66 H281    13.3450     1.1330    23.1170 H     1 LIG   0.0000 
 67 H282    12.6620     0.0830    24.1640 H     1 LIG   0.0000 
 68 H32      8.6290     1.4390    22.8930 H     1 LIG   0.0000 
 69 H361     7.7160     0.6310    19.7890 H     1 LIG   0.0000 
 70 H362     7.2370     1.2870    21.2050 H     1 LIG   0.0000 
 71 H701     9.6700     3.7020    21.4610 H     1 LIG   0.0000 
 72 H702     8.1020     3.4360    21.8330 H     1 LIG   0.0000 
 73 H33      9.9210     0.4660    20.9260 H     1 LIG   0.0000 
@<TRIPOS>BOND
  1   1   2  1   
  2   1  51  1   
  3   1  52  1   
  4   1  53  1   
  5   2   3  1   
  6   2   4  1   
  7   2  54  1   
  8   3  55  1   
  9   3  56  1   
 10   3  57  1   
 11   4   5  1   
 12   4   6  am  
 13   5  58  1   
 14   5  59  1   
 15   5  60  1   
 16   6   7  2   
 17   6   8  1   
 18   8   9  1   
 19   8  40  1   
 20   8  61  1   
 21   9  10  1   
 22   9  62  1   
 23   9  63  1   
 24  10  11  1   
 25  10  64  1   
 26  10  65  1   
 27  11  12  am  
 28  11  16  1   
 29  12  13  2   
 30  12  14  1   
 31  14  15  1   
 32  14  66  1   
 33  14  67  1   
 34  16  17  1   
 35  16  40  1   
 36  16  68  1   
 37  17  18  1   
 38  17  73  1   
 39  18  19  1   
 40  18  69  1   
 41  18  70  1   
 42  19  20  1   
 43  19  39  2   
 44  20  21  2   
 45  20  41  1   
 46  21  22  1   
 47  21  29  1   
 48  22  23  ar  
 49  22  27  ar  
 50  23  24  ar  
 51  23  43  1   
 52  24  25  ar  
 53  24  44  1   
 54  25  26  ar  
 55  25  45  1   
 56  26  27  ar  
 57  26  46  1   
 58  27  28  1   
 59  29  30  1   
 60  29  39  1   
 61  30  31  2   
 62  30  32  2   
 63  30  33  1   
 64  33  34  ar  
 65  33  38  ar  
 66  34  35  ar  
 67  34  47  1   
 68  35  36  ar  
 69  35  48  1   
 70  36  37  ar  
 71  36  49  1   
 72  37  38  ar  
 73  38  50  1   
 74  39  42  1   
 75  40  71  1   
 76  40  72  1   
@<TRIPOS>SUBSTRUCTURE
  1 LIG  20 GROUP 4 **** **** 0
@<TRIPOS>PROPERTY_DATA
index	|	ligand342
Name	|	MAK-UNK-8fd-36
ChemPlp	|	-96.0347
MM-GBSA Nwat=0	|	45.0934
STDEV0	|	5.6363
MM-GBSA Nwat=30	|	40.7358
STDEV30	|	11.1104
MM-GBSA Nwat=60	|	22.9452
STDEV60	|	12.8764
ST.DEV < 10%	|	N
RMSD LIG < 2	|	
DIST < 5	|	
DIST < 3.5	|	N

# MOE 2019.01 (io_trps.svl 2018.10)

@<TRIPOS>MOLECULE
ligand309
71 76 1 0 0 
SMALL
NO_CHARGES


@<TRIPOS>ATOM
  1 O1       8.4300     5.6720    25.5020 O.2   1 LIG   0.0000 
  2 C2       8.8360     4.5670    25.2690 C.2   1 LIG   0.0000 
  3 C3       7.8720     3.3920    25.2500 C.3   1 LIG   0.0000 
  4 CL6      6.9980     3.3160    26.7980 Cl    1 LIG   0.0000 
  5 N7      10.1960     4.3600    25.0160 N.am  1 LIG   0.0000 
  6 C8      11.1990     5.4320    25.0140 C.3   1 LIG   0.0000 
  7 C11     12.0130     5.2840    23.7370 C.ar  1 LIG   0.0000 
  8 C12     12.8800     6.3200    23.4240 C.ar  1 LIG   0.0000 
  9 C14     13.6740     6.2670    22.2840 C.ar  1 LIG   0.0000 
 10 C16     13.5980     5.1600    21.4440 C.ar  1 LIG   0.0000 
 11 C18     12.7280     4.1210    21.7570 C.ar  1 LIG   0.0000 
 12 C20     11.9340     4.1690    22.8970 C.ar  1 LIG   0.0000 
 13 C21     10.9980     3.0130    23.2150 C.3   1 LIG   0.0000 
 14 C22     11.6500     1.6730    22.9080 C.ar  1 LIG   0.0000 
 15 C23     12.9920     1.4690    23.2090 C.ar  1 LIG   0.0000 
 16 C25     13.5900     0.2440    22.9270 C.ar  1 LIG   0.0000 
 17 C27     12.8440    -0.7750    22.3460 C.ar  1 LIG   0.0000 
 18 C29     11.5010    -0.5710    22.0460 C.ar  1 LIG   0.0000 
 19 C31     10.9050     0.6530    22.3270 C.ar  1 LIG   0.0000 
 20 N32      9.5510     0.8370    22.0170 N.pl3 1 LIG   0.0000 
 21 C35      8.8990    -0.0340    21.0290 C.3   1 LIG   0.0000 
 22 C38      8.4220    -1.3110    21.7140 C.2   1 LIG   0.0000 
 23 C39      8.9170    -1.8020    22.9460 C.2   1 LIG   0.0000 
 24 C41      8.2400    -2.9580    23.2010 C.2   1 LIG   0.0000 
 25 C42      8.4390    -3.8000    24.3650 C.ar  1 LIG   0.0000 
 26 C43      7.3630    -4.4840    24.9200 C.ar  1 LIG   0.0000 
 27 C45      7.5540    -5.2930    26.0350 C.ar  1 LIG   0.0000 
 28 C47      8.8210    -5.4160    26.5970 C.ar  1 LIG   0.0000 
 29 C49      9.8970    -4.7320    26.0420 C.ar  1 LIG   0.0000 
 30 C51      9.7060    -3.9230    24.9260 C.ar  1 LIG   0.0000 
 31 F52     10.7350    -3.2690    24.3950 F     1 LIG   0.0000 
 32 N53      7.3540    -3.1660    22.1800 N.pl3 1 LIG   0.0000 
 33 S54      6.2900    -4.4760    22.0680 S.o2  1 LIG   0.0000 
 34 O55      5.8050    -4.5860    20.7170 O.2   1 LIG   0.0000 
 35 O56      6.9800    -5.6860    22.4310 O.2   1 LIG   0.0000 
 36 C57      4.9480    -4.2270    23.1470 C.ar  1 LIG   0.0000 
 37 C58      3.9220    -5.1640    23.1980 C.ar  1 LIG   0.0000 
 38 C60      2.8500    -4.9640    24.0610 C.ar  1 LIG   0.0000 
 39 C62      2.8310    -3.8240    24.8590 C.ar  1 LIG   0.0000 
 40 N64      3.8300    -2.9320    24.7960 N.ar  1 LIG   0.0000 
 41 C65      4.8720    -3.1070    23.9700 C.ar  1 LIG   0.0000 
 42 C67      7.4530    -2.1660    21.2540 C.2   1 LIG   0.0000 
 43 C69     10.7760     3.0470    24.7160 C.3   1 LIG   0.0000 
 44 H12     12.9350     7.1160    24.0270 H     1 LIG   0.0000 
 45 H14     14.2960     7.0200    22.0680 H     1 LIG   0.0000 
 46 H16     14.1650     5.1120    20.6210 H     1 LIG   0.0000 
 47 H18     12.6740     3.3260    21.1520 H     1 LIG   0.0000 
 48 H23     13.5280     2.2020    23.6280 H     1 LIG   0.0000 
 49 H25     14.5550     0.0980    23.1420 H     1 LIG   0.0000 
 50 H27     13.2730    -1.6560    22.1440 H     1 LIG   0.0000 
 51 H29     10.9650    -1.3040    21.6280 H     1 LIG   0.0000 
 52 H39      9.6240    -1.3840    23.5160 H     1 LIG   0.0000 
 53 H67      6.9240    -2.0760    20.4090 H     1 LIG   0.0000 
 54 H43      6.4520    -4.3940    24.5170 H     1 LIG   0.0000 
 55 H45      6.7800    -5.7850    26.4340 H     1 LIG   0.0000 
 56 H47      8.9580    -5.9970    27.3990 H     1 LIG   0.0000 
 57 H49     10.8080    -4.8210    26.4440 H     1 LIG   0.0000 
 58 H58      3.9540    -5.9760    22.6160 H     1 LIG   0.0000 
 59 H60      2.1050    -5.6300    24.1080 H     1 LIG   0.0000 
 60 H62      2.0660    -3.6690    25.4840 H     1 LIG   0.0000 
 61 H65      5.6030    -2.4250    23.9450 H     1 LIG   0.0000 
 62 H31      7.2180     3.5090    24.5030 H     1 LIG   0.0000 
 63 H32      8.3840     2.5430    25.1140 H     1 LIG   0.0000 
 64 H81     11.7950     5.3460    25.8120 H     1 LIG   0.0000 
 65 H82     10.7470     6.3240    25.0300 H     1 LIG   0.0000 
 66 H21     10.1320     3.1090    22.7240 H     1 LIG   0.0000 
 67 H351     9.5510    -0.2670    20.3070 H     1 LIG   0.0000 
 68 H352     8.1160     0.4420    20.6300 H     1 LIG   0.0000 
 69 H691    10.1470     2.3200    24.9900 H     1 LIG   0.0000 
 70 H692    11.6460     2.9350    25.1970 H     1 LIG   0.0000 
 71 H32      9.0290     1.5610    22.4680 H     1 LIG   0.0000 
@<TRIPOS>BOND
  1   1   2  2   
  2   2   3  1   
  3   2   5  am  
  4   3   4  1   
  5   3  62  1   
  6   3  63  1   
  7   5   6  1   
  8   5  43  1   
  9   6   7  1   
 10   6  64  1   
 11   6  65  1   
 12   7   8  ar  
 13   7  12  ar  
 14   8   9  ar  
 15   8  44  1   
 16   9  10  ar  
 17   9  45  1   
 18  10  11  ar  
 19  10  46  1   
 20  11  12  ar  
 21  11  47  1   
 22  12  13  1   
 23  13  14  1   
 24  13  43  1   
 25  13  66  1   
 26  14  15  ar  
 27  14  19  ar  
 28  15  16  ar  
 29  15  48  1   
 30  16  17  ar  
 31  16  49  1   
 32  17  18  ar  
 33  17  50  1   
 34  18  19  ar  
 35  18  51  1   
 36  19  20  1   
 37  20  21  1   
 38  20  71  1   
 39  21  22  1   
 40  21  67  1   
 41  21  68  1   
 42  22  23  1   
 43  22  42  2   
 44  23  24  2   
 45  23  52  1   
 46  24  25  1   
 47  24  32  1   
 48  25  26  ar  
 49  25  30  ar  
 50  26  27  ar  
 51  26  54  1   
 52  27  28  ar  
 53  27  55  1   
 54  28  29  ar  
 55  28  56  1   
 56  29  30  ar  
 57  29  57  1   
 58  30  31  1   
 59  32  33  1   
 60  32  42  1   
 61  33  34  2   
 62  33  35  2   
 63  33  36  1   
 64  36  37  ar  
 65  36  41  ar  
 66  37  38  ar  
 67  37  58  1   
 68  38  39  ar  
 69  38  59  1   
 70  39  40  ar  
 71  39  60  1   
 72  40  41  ar  
 73  41  61  1   
 74  42  53  1   
 75  43  69  1   
 76  43  70  1   
@<TRIPOS>SUBSTRUCTURE
  1 LIG  23 GROUP 4 **** **** 0
@<TRIPOS>PROPERTY_DATA
index	|	ligand309
Name	|	MAK-UNK-702-16
ChemPlp	|	-103.755
MM-GBSA Nwat=0	|	13.9602
STDEV0	|	2.6128
MM-GBSA Nwat=30	|	43.4218
STDEV30	|	8.613
MM-GBSA Nwat=60	|	5.8375
STDEV60	|	8.6878
ST.DEV < 10%	|	N
RMSD LIG < 2	|	
DIST < 5	|	
DIST < 3.5	|	N

# MOE 2019.01 (io_trps.svl 2018.10)

@<TRIPOS>MOLECULE
ligand348
73 76 1 0 0 
SMALL
NO_CHARGES


@<TRIPOS>ATOM
  1 C1      12.7040     2.8680    23.3160 C.3   1 LIG   0.0000 
  2 N5      11.4960     2.0400    23.4470 N.am  1 LIG   0.0000 
  3 C6      10.2620     2.6320    23.5020 C.2   1 LIG   0.0000 
  4 O7       9.2760     1.9560    23.6090 O.2   1 LIG   0.0000 
  5 C8      10.1420     4.1460    23.4270 C.3   1 LIG   0.0000 
  6 C10      8.6740     4.4840    23.2030 C.3   1 LIG   0.0000 
  7 C13      8.4240     5.9860    23.1930 C.3   1 LIG   0.0000 
  8 N16      9.1080     6.6660    24.3050 N.am  1 LIG   0.0000 
  9 C17      8.5060     7.7990    24.8580 C.2   1 LIG   0.0000 
 10 O18      7.4580     8.1930    24.4260 O.2   1 LIG   0.0000 
 11 C19      9.1780     8.5320    26.0080 C.3   1 LIG   0.0000 
 12 CL22     8.8160    10.2710    25.8950 Cl    1 LIG   0.0000 
 13 C23     10.3910     6.2100    24.8660 C.3   1 LIG   0.0000 
 14 C26     10.5440     4.6980    24.7880 C.3   1 LIG   0.0000 
 15 C29     11.6130     0.5760    23.5200 C.3   1 LIG   0.0000 
 16 C30     11.5270     0.1320    24.9710 C.3   1 LIG   0.0000 
 17 C34     12.9490     0.1450    22.9360 C.3   1 LIG   0.0000 
 18 N38     10.5210    -0.0410    22.7530 N.3   1 LIG   0.0000 
 19 C41     10.7380    -1.4920    22.6720 C.3   1 LIG   0.0000 
 20 C44      9.4070    -2.1930    22.4220 C.2   1 LIG   0.0000 
 21 C45      8.8840    -3.2450    23.2110 C.2   1 LIG   0.0000 
 22 C47      7.6900    -3.5910    22.6520 C.2   1 LIG   0.0000 
 23 C48      6.8140    -4.6390    23.1400 C.ar  1 LIG   0.0000 
 24 C49      6.0600    -5.3880    22.2440 C.ar  1 LIG   0.0000 
 25 C51      5.2200    -6.3930    22.7120 C.ar  1 LIG   0.0000 
 26 C53      5.1340    -6.6490    24.0770 C.ar  1 LIG   0.0000 
 27 C55      5.8880    -5.8990    24.9740 C.ar  1 LIG   0.0000 
 28 C57      6.7280    -4.8940    24.5060 C.ar  1 LIG   0.0000 
 29 F58      7.4490    -4.1770    25.3640 F     1 LIG   0.0000 
 30 N59      7.4740    -2.7780    21.5730 N.pl3 1 LIG   0.0000 
 31 S60      6.1140    -2.8350    20.5700 S.o2  1 LIG   0.0000 
 32 O61      6.2260    -3.9550    19.6720 O.2   1 LIG   0.0000 
 33 O62      4.9300    -2.9840    21.3760 O.2   1 LIG   0.0000 
 34 C63      6.0090    -1.3620    19.6510 C.ar  1 LIG   0.0000 
 35 C64      6.0010    -0.1370    20.3110 C.ar  1 LIG   0.0000 
 36 C66      5.9180     1.0400    19.5750 C.ar  1 LIG   0.0000 
 37 C68      5.8430     0.9640    18.1880 C.ar  1 LIG   0.0000 
 38 N70      5.8520    -0.2270    17.5700 N.ar  1 LIG   0.0000 
 39 C71      5.9320    -1.3730    18.2620 C.ar  1 LIG   0.0000 
 40 C73      8.5200    -1.9140    21.4120 C.2   1 LIG   0.0000 
 41 H45      9.3080    -3.6550    24.0190 H     1 LIG   0.0000 
 42 H73      8.6190    -1.2180    20.7010 H     1 LIG   0.0000 
 43 H49      6.1210    -5.2030    21.2630 H     1 LIG   0.0000 
 44 H51      4.6790    -6.9330    22.0670 H     1 LIG   0.0000 
 45 H53      4.5300    -7.3710    24.4130 H     1 LIG   0.0000 
 46 H55      5.8270    -6.0840    25.9540 H     1 LIG   0.0000 
 47 H64      6.0550    -0.1040    21.3080 H     1 LIG   0.0000 
 48 H66      5.9110     1.9280    20.0360 H     1 LIG   0.0000 
 49 H68      5.7830     1.8030    17.6470 H     1 LIG   0.0000 
 50 H71      5.9370    -2.2460    17.7740 H     1 LIG   0.0000 
 51 H11     13.5110     2.2780    23.2920 H     1 LIG   0.0000 
 52 H12     12.6530     3.4000    22.4710 H     1 LIG   0.0000 
 53 H13     12.7680     3.4890    24.0970 H     1 LIG   0.0000 
 54 H8      10.7160     4.5200    22.6990 H     1 LIG   0.0000 
 55 H101     8.1330     4.0720    23.9360 H     1 LIG   0.0000 
 56 H102     8.3880     4.1040    22.3230 H     1 LIG   0.0000 
 57 H131     8.7570     6.3630    22.3290 H     1 LIG   0.0000 
 58 H132     7.4400     6.1490    23.2710 H     1 LIG   0.0000 
 59 H191     8.8340     8.1750    26.8770 H     1 LIG   0.0000 
 60 H192    10.1670     8.3930    25.9590 H     1 LIG   0.0000 
 61 H231    10.4420     6.4910    25.8240 H     1 LIG   0.0000 
 62 H232    11.1370     6.6370    24.3540 H     1 LIG   0.0000 
 63 H261    11.5000     4.4620    24.9610 H     1 LIG   0.0000 
 64 H262     9.9650     4.2800    25.4880 H     1 LIG   0.0000 
 65 H301    11.6060    -0.8630    25.0200 H     1 LIG   0.0000 
 66 H302    12.2700     0.5520    25.4920 H     1 LIG   0.0000 
 67 H303    10.6480     0.4160    25.3550 H     1 LIG   0.0000 
 68 H341    13.0280    -0.8510    22.9850 H     1 LIG   0.0000 
 69 H342    13.0050     0.4370    21.9810 H     1 LIG   0.0000 
 70 H343    13.6920     0.5650    23.4580 H     1 LIG   0.0000 
 71 H411    11.1300    -1.8190    23.5330 H     1 LIG   0.0000 
 72 H412    11.3680    -1.6940    21.9220 H     1 LIG   0.0000 
 73 H38     10.5020     0.3450    21.8300 H     1 LIG   0.0000 
@<TRIPOS>BOND
  1   1   2  1   
  2   1  51  1   
  3   1  52  1   
  4   1  53  1   
  5   2   3  am  
  6   2  15  1   
  7   3   4  2   
  8   3   5  1   
  9   5   6  1   
 10   5  14  1   
 11   5  54  1   
 12   6   7  1   
 13   6  55  1   
 14   6  56  1   
 15   7   8  1   
 16   7  57  1   
 17   7  58  1   
 18   8   9  am  
 19   8  13  1   
 20   9  10  2   
 21   9  11  1   
 22  11  12  1   
 23  11  59  1   
 24  11  60  1   
 25  13  14  1   
 26  13  61  1   
 27  13  62  1   
 28  14  63  1   
 29  14  64  1   
 30  15  16  1   
 31  15  17  1   
 32  15  18  1   
 33  16  65  1   
 34  16  66  1   
 35  16  67  1   
 36  17  68  1   
 37  17  69  1   
 38  17  70  1   
 39  18  19  1   
 40  18  73  1   
 41  19  20  1   
 42  19  71  1   
 43  19  72  1   
 44  20  21  1   
 45  20  40  2   
 46  21  22  2   
 47  21  41  1   
 48  22  23  1   
 49  22  30  1   
 50  23  24  ar  
 51  23  28  ar  
 52  24  25  ar  
 53  24  43  1   
 54  25  26  ar  
 55  25  44  1   
 56  26  27  ar  
 57  26  45  1   
 58  27  28  ar  
 59  27  46  1   
 60  28  29  1   
 61  30  31  1   
 62  30  40  1   
 63  31  32  2   
 64  31  33  2   
 65  31  34  1   
 66  34  35  ar  
 67  34  39  ar  
 68  35  36  ar  
 69  35  47  1   
 70  36  37  ar  
 71  36  48  1   
 72  37  38  ar  
 73  37  49  1   
 74  38  39  ar  
 75  39  50  1   
 76  40  42  1   
@<TRIPOS>SUBSTRUCTURE
  1 LIG   4 GROUP 4 **** **** 0
@<TRIPOS>PROPERTY_DATA
index	|	ligand348
Name	|	MAK-UNK-8fd-41
ChemPlp	|	-97.695
MM-GBSA Nwat=0	|	19.5408
STDEV0	|	6.263
MM-GBSA Nwat=30	|	50.759
STDEV30	|	29.7883
MM-GBSA Nwat=60	|	28.4306
STDEV60	|	32.7548
ST.DEV < 10%	|	N
RMSD LIG < 2	|	
DIST < 5	|	
DIST < 3.5	|	N

# MOE 2019.01 (io_trps.svl 2018.10)

@<TRIPOS>MOLECULE
ligand361
68 71 1 0 0 
SMALL
USER_CHARGES


@<TRIPOS>ATOM
  1 C1      12.9270    -0.7190    22.4830 C.3   1 LIG   0.0000 
  2 C5      11.5980    -1.2530    22.9950 C.ar  1 LIG   0.0000 
  3 C6      11.5290    -2.5450    23.5060 C.ar  1 LIG   0.0000 
  4 C8      10.3110    -3.0310    23.9720 C.ar  1 LIG   0.0000 
  5 C10      9.1770    -2.2270    23.9260 C.ar  1 LIG   0.0000 
  6 O11      7.9960    -2.7000    24.3790 O.3   1 LIG   0.0000 
  7 C12      7.3090    -3.6080    23.6530 C.ar  1 LIG   0.0000 
  8 C13      6.9940    -3.3320    22.3270 C.ar  1 LIG   0.0000 
  9 C15      6.2870    -4.2800    21.5950 C.ar  1 LIG   0.0000 
 10 O16      5.9790    -4.0210    20.3070 O.3   1 LIG   0.0000 
 11 C18      5.8930    -5.4870    22.1640 C.ar  1 LIG   0.0000 
 12 C20      6.2140    -5.7490    23.4920 C.ar  1 LIG   0.0000 
 13 C22      6.9220    -4.8090    24.2350 C.ar  1 LIG   0.0000 
 14 N23      7.2450    -5.0710    25.5700 N.pl3 1 LIG   0.0000 
 15 C24      8.5970    -4.7850    26.0700 C.3   1 LIG   0.0000 
 16 C28      6.2790    -5.6070    26.4320 C.ar  1 LIG   0.0000 
 17 C29      6.6270    -5.8960    27.7480 C.ar  1 LIG   0.0000 
 18 C31      5.6590    -6.4270    28.5940 C.ar  1 LIG   0.0000 
 19 S32      6.0810    -6.7940    30.2420 S.o2  1 LIG   0.0000 
 20 N33      7.1250    -8.0450    30.2700 N.am  1 LIG   0.0000 
 21 O36      6.6970    -5.6410    30.8480 O.2   1 LIG   0.0000 
 22 O37      4.8920    -7.1430    30.9760 O.2   1 LIG   0.0000 
 23 N38      4.4240    -6.6440    28.1190 N.ar  1 LIG   0.0000 
 24 C39      4.1020    -6.3600    26.8480 C.ar  1 LIG   0.0000 
 25 N41      5.0250    -5.8480    26.0200 N.ar  1 LIG   0.0000 
 26 C42      9.2570    -0.9360    23.4120 C.ar  1 LIG   0.0000 
 27 C43      8.0160    -0.0590    23.3600 C.3   1 LIG   0.0000 
 28 N46      7.8660     0.4990    22.0090 N.4   1 LIG   1.0000 
 29 C48      7.8390    -0.6380    21.0740 C.3   1 LIG   0.0000 
 30 C51      7.6390    -0.1860    19.6350 C.3   1 LIG   0.0000 
 31 N54      6.5680     0.8180    19.5290 N.am  1 LIG   0.0000 
 32 C55      5.7910     0.8440    18.3660 C.2   1 LIG   0.0000 
 33 O56      6.0050     0.0590    17.4840 O.2   1 LIG   0.0000 
 34 C57      4.6750     1.8660    18.2190 C.3   1 LIG   0.0000 
 35 CL60     3.6790     1.8730    19.6950 Cl    1 LIG   0.0000 
 36 C61      6.2760     1.7830    20.6010 C.3   1 LIG   0.0000 
 37 C64      6.5730     1.2040    21.9760 C.3   1 LIG   0.0000 
 38 C67     10.4700    -0.4420    22.9420 C.ar  1 LIG   0.0000 
 39 H6      12.3460    -3.1190    23.5390 H     1 LIG   0.0000 
 40 H8      10.2510    -3.9590    24.3410 H     1 LIG   0.0000 
 41 H67     10.5290     0.4850    22.5720 H     1 LIG   0.0000 
 42 H13      7.2710    -2.4680    21.9060 H     1 LIG   0.0000 
 43 H18      5.3840    -6.1580    21.6250 H     1 LIG   0.0000 
 44 H20      5.9370    -6.6120    23.9130 H     1 LIG   0.0000 
 45 H29      7.5550    -5.7250    28.0780 H     1 LIG   0.0000 
 46 H39      3.1740    -6.5310    26.5170 H     1 LIG   0.0000 
 47 H11     13.6320    -1.4200    22.5900 H     1 LIG   0.0000 
 48 H12     12.8400    -0.4790    21.5160 H     1 LIG   0.0000 
 49 H13     13.1830     0.0940    23.0060 H     1 LIG   0.0000 
 50 H241     9.1540    -4.4100    25.3280 H     1 LIG   0.0000 
 51 H242     8.5440    -4.1200    26.8150 H     1 LIG   0.0000 
 52 H243     9.0140    -5.6290    26.4050 H     1 LIG   0.0000 
 53 H431     7.2110    -0.6080    23.5860 H     1 LIG   0.0000 
 54 H432     8.1070     0.6860    24.0210 H     1 LIG   0.0000 
 55 H46      8.6180     1.1220    21.7930 H     1 LIG   0.0000 
 56 H481     7.0880    -1.2480    21.3290 H     1 LIG   0.0000 
 57 H482     8.7060    -1.1310    21.1400 H     1 LIG   0.0000 
 58 H511     8.4920     0.2130    19.2980 H     1 LIG   0.0000 
 59 H512     7.3970    -0.9790    19.0760 H     1 LIG   0.0000 
 60 H571     5.0710     2.7740    18.0800 H     1 LIG   0.0000 
 61 H572     4.1050     1.6270    17.4330 H     1 LIG   0.0000 
 62 H611     5.3090     2.0340    20.5570 H     1 LIG   0.0000 
 63 H612     6.8390     2.5990    20.4650 H     1 LIG   0.0000 
 64 H641     6.5940     1.9480    22.6430 H     1 LIG   0.0000 
 65 H642     5.8480     0.5590    22.2190 H     1 LIG   0.0000 
 66 H331     7.2110    -8.4290    29.3510 H     1 LIG   0.0000 
 67 H332     8.0200    -7.7270    30.5830 H     1 LIG   0.0000 
 68 H16      6.1320    -3.1080    19.9300 H     1 LIG   0.0000 
@<TRIPOS>BOND
  1   1   2  1   
  2   1  47  1   
  3   1  48  1   
  4   1  49  1   
  5   2   3  ar  
  6   2  38  ar  
  7   3   4  ar  
  8   3  39  1   
  9   4   5  ar  
 10   4  40  1   
 11   5   6  1   
 12   5  26  ar  
 13   6   7  1   
 14   7   8  ar  
 15   7  13  ar  
 16   8   9  ar  
 17   8  42  1   
 18   9  10  1   
 19   9  11  ar  
 20  10  68  1   
 21  11  12  ar  
 22  11  43  1   
 23  12  13  ar  
 24  12  44  1   
 25  13  14  1   
 26  14  15  1   
 27  14  16  1   
 28  15  50  1   
 29  15  51  1   
 30  15  52  1   
 31  16  17  ar  
 32  16  25  ar  
 33  17  18  ar  
 34  17  45  1   
 35  18  19  1   
 36  18  23  ar  
 37  19  20  am  
 38  19  21  2   
 39  19  22  2   
 40  20  66  1   
 41  20  67  1   
 42  23  24  ar  
 43  24  25  ar  
 44  24  46  1   
 45  26  27  1   
 46  26  38  ar  
 47  27  28  1   
 48  27  53  1   
 49  27  54  1   
 50  28  29  1   
 51  28  37  1   
 52  28  55  1   
 53  29  30  1   
 54  29  56  1   
 55  29  57  1   
 56  30  31  1   
 57  30  58  1   
 58  30  59  1   
 59  31  32  am  
 60  31  36  1   
 61  32  33  2   
 62  32  34  1   
 63  34  35  1   
 64  34  60  1   
 65  34  61  1   
 66  36  37  1   
 67  36  62  1   
 68  36  63  1   
 69  37  64  1   
 70  37  65  1   
 71  38  41  1   
@<TRIPOS>SUBSTRUCTURE
  1 LIG   7 GROUP 4 **** **** 0
@<TRIPOS>PROPERTY_DATA
index	|	ligand361
Name	|	MAK-UNK-af8-18
ChemPlp	|	-93.7953
MM-GBSA Nwat=0	|	0.7942
STDEV0	|	4.9953
MM-GBSA Nwat=30	|	50.9435
STDEV30	|	8.6116
MM-GBSA Nwat=60	|	32.2138
STDEV60	|	10.9113
ST.DEV < 10%	|	N
RMSD LIG < 2	|	
DIST < 5	|	
DIST < 3.5	|	N

# MOE 2019.01 (io_trps.svl 2018.10)

@<TRIPOS>MOLECULE
ligand360
64 66 1 0 0 
SMALL
USER_CHARGES


@<TRIPOS>ATOM
  1 C1      13.9030     6.2710    21.9940 C.3   1 LIG   0.0000 
  2 C5      12.9560     5.3010    22.6840 C.ar  1 LIG   0.0000 
  3 C6      11.8490     5.7930    23.3660 C.ar  1 LIG   0.0000 
  4 C8      10.9930     4.8930    23.9910 C.ar  1 LIG   0.0000 
  5 C9       9.7800     5.4160    24.7410 C.3   1 LIG   0.0000 
  6 N12      9.1340     6.4750    23.9510 N.4   1 LIG   1.0000 
  7 C14      8.3580     5.8090    22.8920 C.3   1 LIG   0.0000 
  8 C17      7.6010     6.8080    22.0290 C.3   1 LIG   0.0000 
  9 N20      6.9180     7.8200    22.8500 N.am  1 LIG   0.0000 
 10 C21      5.7060     8.3460    22.3880 C.2   1 LIG   0.0000 
 11 O22      5.1250     9.1730    23.0350 O.2   1 LIG   0.0000 
 12 C23      5.1250     7.8700    21.0660 C.3   1 LIG   0.0000 
 13 CL26     4.9010     9.2620    19.9800 Cl    1 LIG   0.0000 
 14 C27      7.4520     8.2890    24.1390 C.3   1 LIG   0.0000 
 15 C30      8.2250     7.1950    24.8590 C.3   1 LIG   0.0000 
 16 C33     11.2270     3.5220    23.9410 C.ar  1 LIG   0.0000 
 17 C35     12.3420     3.0570    23.2510 C.ar  1 LIG   0.0000 
 18 N36     12.5890     1.6800    23.1950 N.pl3 1 LIG   0.0000 
 19 C38     11.4800     0.7270    23.3470 C.3   1 LIG   0.0000 
 20 C41     11.4800    -0.2420    22.1760 C.3   1 LIG   0.0000 
 21 C42     12.6390    -1.2140    22.3230 C.3   1 LIG   0.0000 
 22 C46     10.1710    -1.0130    22.1560 C.ar  1 LIG   0.0000 
 23 C47      9.1080    -0.5370    21.3970 C.ar  1 LIG   0.0000 
 24 C49      7.9120    -1.2470    21.3810 C.ar  1 LIG   0.0000 
 25 C51      7.7900    -2.4190    22.1200 C.ar  1 LIG   0.0000 
 26 S52      6.2930    -3.3050    22.0980 S.o2  1 LIG   0.0000 
 27 N53      5.2660    -2.6630    23.1890 N.am  1 LIG   0.0000 
 28 O56      5.7080    -3.2280    20.7850 O.2   1 LIG   0.0000 
 29 O57      6.5460    -4.6830    22.4310 O.2   1 LIG   0.0000 
 30 C58      8.8540    -2.8960    22.8800 C.ar  1 LIG   0.0000 
 31 C60     10.0490    -2.1860    22.8950 C.ar  1 LIG   0.0000 
 32 C62     13.2140     3.9360    22.6180 C.ar  1 LIG   0.0000 
 33 H6      11.6720     6.7770    23.4080 H     1 LIG   0.0000 
 34 H33     10.6050     2.8830    24.3940 H     1 LIG   0.0000 
 35 H62     14.0130     3.5920    22.1250 H     1 LIG   0.0000 
 36 H47      9.2020     0.3060    20.8680 H     1 LIG   0.0000 
 37 H49      7.1400    -0.9160    20.8380 H     1 LIG   0.0000 
 38 H58      8.7590    -3.7390    23.4090 H     1 LIG   0.0000 
 39 H60     10.8210    -2.5180    23.4360 H     1 LIG   0.0000 
 40 H11     13.5810     7.2070    22.1340 H     1 LIG   0.0000 
 41 H12     14.8200     6.1730    22.3810 H     1 LIG   0.0000 
 42 H13     13.9310     6.0700    21.0150 H     1 LIG   0.0000 
 43 H91      9.1320     4.6700    24.8900 H     1 LIG   0.0000 
 44 H92     10.0680     5.7880    25.6240 H     1 LIG   0.0000 
 45 H12      9.8150     7.0950    23.5600 H     1 LIG   0.0000 
 46 H141     7.7020     5.1850    23.3160 H     1 LIG   0.0000 
 47 H142     8.9850     5.2900    22.3100 H     1 LIG   0.0000 
 48 H171     8.2480     7.2660    21.4200 H     1 LIG   0.0000 
 49 H172     6.9210     6.3170    21.4850 H     1 LIG   0.0000 
 50 H231     5.7510     7.2150    20.6440 H     1 LIG   0.0000 
 51 H232     4.2420     7.4290    21.2290 H     1 LIG   0.0000 
 52 H271     6.6910     8.5830    24.7170 H     1 LIG   0.0000 
 53 H272     8.0630     9.0630    23.9740 H     1 LIG   0.0000 
 54 H301     8.7630     7.6090    25.5930 H     1 LIG   0.0000 
 55 H302     7.5750     6.5420    25.2490 H     1 LIG   0.0000 
 56 H381    10.6130     1.2250    23.3670 H     1 LIG   0.0000 
 57 H382    11.5920     0.2190    24.2000 H     1 LIG   0.0000 
 58 H41     11.5800     0.2680    21.3210 H     1 LIG   0.0000 
 59 H421    13.5010    -0.7060    22.3360 H     1 LIG   0.0000 
 60 H422    12.5400    -1.7240    23.1780 H     1 LIG   0.0000 
 61 H423    12.6400    -1.8520    21.5520 H     1 LIG   0.0000 
 62 H36     13.5200     1.3450    23.0510 H     1 LIG   0.0000 
 63 H531     4.7530    -1.9170    22.7650 H     1 LIG   0.0000 
 64 H532     4.6300    -3.3680    23.5040 H     1 LIG   0.0000 
@<TRIPOS>BOND
  1   1   2  1   
  2   1  40  1   
  3   1  41  1   
  4   1  42  1   
  5   2   3  ar  
  6   2  32  ar  
  7   3   4  ar  
  8   3  33  1   
  9   4   5  1   
 10   4  16  ar  
 11   5   6  1   
 12   5  43  1   
 13   5  44  1   
 14   6   7  1   
 15   6  15  1   
 16   6  45  1   
 17   7   8  1   
 18   7  46  1   
 19   7  47  1   
 20   8   9  1   
 21   8  48  1   
 22   8  49  1   
 23   9  10  am  
 24   9  14  1   
 25  10  11  2   
 26  10  12  1   
 27  12  13  1   
 28  12  50  1   
 29  12  51  1   
 30  14  15  1   
 31  14  52  1   
 32  14  53  1   
 33  15  54  1   
 34  15  55  1   
 35  16  17  ar  
 36  16  34  1   
 37  17  18  1   
 38  17  32  ar  
 39  18  19  1   
 40  18  62  1   
 41  19  20  1   
 42  19  56  1   
 43  19  57  1   
 44  20  21  1   
 45  20  22  1   
 46  20  58  1   
 47  21  59  1   
 48  21  60  1   
 49  21  61  1   
 50  22  23  ar  
 51  22  31  ar  
 52  23  24  ar  
 53  23  36  1   
 54  24  25  ar  
 55  24  37  1   
 56  25  26  1   
 57  25  30  ar  
 58  26  27  am  
 59  26  28  2   
 60  26  29  2   
 61  27  63  1   
 62  27  64  1   
 63  30  31  ar  
 64  30  38  1   
 65  31  39  1   
 66  32  35  1   
@<TRIPOS>SUBSTRUCTURE
  1 LIG  16 GROUP 4 **** **** 0
@<TRIPOS>PROPERTY_DATA
index	|	ligand360
Name	|	MAK-UNK-af8-17
ChemPlp	|	-98.3444
MM-GBSA Nwat=0	|	56.6984
STDEV0	|	5.1821
MM-GBSA Nwat=30	|	51.182
STDEV30	|	9.8577
MM-GBSA Nwat=60	|	27.9252
STDEV60	|	8.8497
ST.DEV < 10%	|	N
RMSD LIG < 2	|	
DIST < 5	|	
DIST < 3.5	|	N

# MOE 2019.01 (io_trps.svl 2018.10)

@<TRIPOS>MOLECULE
ligand320
74 77 1 0 0 
SMALL
USER_CHARGES


@<TRIPOS>ATOM
  1 C1       4.7020     2.4510    21.6520 C.3   1 LIG   0.0000 
  2 N5       5.2270     2.4720    20.2790 N.4   1 LIG   1.0000 
  3 C8       4.9190     1.1960    19.6170 C.3   1 LIG   0.0000 
  4 C11      5.7650     0.0860    20.2340 C.2   1 LIG   0.0000 
  5 C12      6.9630     0.2900    20.9600 C.2   1 LIG   0.0000 
  6 C14      7.4060    -0.9450    21.3290 C.2   1 LIG   0.0000 
  7 C15      8.6120    -1.2040    22.0860 C.ar  1 LIG   0.0000 
  8 C16      8.6440    -2.2840    22.9630 C.ar  1 LIG   0.0000 
  9 C18      9.7990    -2.5390    23.6960 C.ar  1 LIG   0.0000 
 10 C20     10.9120    -1.7170    23.5500 C.ar  1 LIG   0.0000 
 11 C22     10.8710    -0.6410    22.6710 C.ar  1 LIG   0.0000 
 12 C23     12.0920     0.2510    22.5180 C.3   1 LIG   0.0000 
 13 C24     13.3520    -0.5950    22.6100 C.3   1 LIG   0.0000 
 14 N28     12.1000     1.2590    23.5880 N.am  1 LIG   0.0000 
 15 C29     12.4020     0.8610    24.9700 C.3   1 LIG   0.0000 
 16 C33     11.8260     2.5690    23.2960 C.2   1 LIG   0.0000 
 17 O34     11.5800     2.8940    22.1680 O.2   1 LIG   0.0000 
 18 C35     11.8350     3.6120    24.4030 C.3   1 LIG   0.0000 
 19 C37     12.6890     4.7800    23.9330 C.3   1 LIG   0.0000 
 20 C40     12.7010     5.9260    24.9360 C.3   1 LIG   0.0000 
 21 N43     11.3510     6.2370    25.4330 N.am  1 LIG   0.0000 
 22 C44     11.0580     7.5620    25.7650 C.2   1 LIG   0.0000 
 23 O45     11.8960     8.4120    25.6420 O.2   1 LIG   0.0000 
 24 C46      9.6760     7.9280    26.2820 C.3   1 LIG   0.0000 
 25 CL49     8.4610     7.5790    25.0280 Cl    1 LIG   0.0000 
 26 C50     10.2940     5.2250    25.5940 C.3   1 LIG   0.0000 
 27 C53     10.4060     4.1130    24.5600 C.3   1 LIG   0.0000 
 28 C56      9.7200    -0.3770    21.9340 C.ar  1 LIG   0.0000 
 29 F57      9.6890     0.6560    21.0960 F     1 LIG   0.0000 
 30 N58      6.5140    -1.8730    20.8640 N.pl3 1 LIG   0.0000 
 31 S59      6.6460    -3.5440    21.0870 S.o2  1 LIG   0.0000 
 32 O60      5.7920    -4.2220    20.1460 O.2   1 LIG   0.0000 
 33 O61      8.0120    -3.9500    20.8750 O.2   1 LIG   0.0000 
 34 C62      6.1640    -3.9530    22.7080 C.ar  1 LIG   0.0000 
 35 C63      6.7700    -5.0230    23.3580 C.ar  1 LIG   0.0000 
 36 C65      6.3850    -5.3480    24.6540 C.ar  1 LIG   0.0000 
 37 C67      5.3950    -4.5910    25.2720 C.ar  1 LIG   0.0000 
 38 N69      4.8220    -3.5630    24.6290 N.ar  1 LIG   0.0000 
 39 C70      5.1810    -3.2330    23.3790 C.ar  1 LIG   0.0000 
 40 C72      5.5000    -1.2590    20.1850 C.2   1 LIG   0.0000 
 41 H12      7.3980     1.1680    21.1620 H     1 LIG   0.0000 
 42 H72      4.7210    -1.7020    19.7420 H     1 LIG   0.0000 
 43 H16      7.8420    -2.8720    23.0660 H     1 LIG   0.0000 
 44 H18      9.8300    -3.3140    24.3270 H     1 LIG   0.0000 
 45 H20     11.7420    -1.9000    24.0770 H     1 LIG   0.0000 
 46 H63      7.4800    -5.5550    22.8950 H     1 LIG   0.0000 
 47 H65      6.8120    -6.1150    25.1330 H     1 LIG   0.0000 
 48 H67      5.1090    -4.8150    26.2040 H     1 LIG   0.0000 
 49 H70      4.7360    -2.4620    22.9250 H     1 LIG   0.0000 
 50 H11      4.9120     3.3190    22.1020 H     1 LIG   0.0000 
 51 H12      3.7110     2.3200    21.6270 H     1 LIG   0.0000 
 52 H13      5.1260     1.7020    22.1600 H     1 LIG   0.0000 
 53 H51      4.8030     3.2220    19.7710 H     1 LIG   0.0000 
 54 H52      6.2180     2.6040    20.3030 H     1 LIG   0.0000 
 55 H81      5.1240     1.2680    18.6410 H     1 LIG   0.0000 
 56 H82      3.9490     0.9830    19.7400 H     1 LIG   0.0000 
 57 H23     12.0620     0.7080    21.6290 H     1 LIG   0.0000 
 58 H241    13.3460    -1.2810    21.8820 H     1 LIG   0.0000 
 59 H242    14.1550    -0.0090    22.5090 H     1 LIG   0.0000 
 60 H243    13.3820    -1.0530    23.4980 H     1 LIG   0.0000 
 61 H291    12.5760    -0.1230    25.0040 H     1 LIG   0.0000 
 62 H292    13.2110     1.3540    25.2900 H     1 LIG   0.0000 
 63 H293    11.6230     1.0820    25.5580 H     1 LIG   0.0000 
 64 H35     12.1810     3.2300    25.2600 H     1 LIG   0.0000 
 65 H371    12.3250     5.1170    23.0650 H     1 LIG   0.0000 
 66 H372    13.6270     4.4600    23.8000 H     1 LIG   0.0000 
 67 H401    13.2800     5.6710    25.7110 H     1 LIG   0.0000 
 68 H402    13.0770     6.7400    24.4920 H     1 LIG   0.0000 
 69 H461     9.4730     7.3900    27.1010 H     1 LIG   0.0000 
 70 H462     9.6510     8.9020    26.5080 H     1 LIG   0.0000 
 71 H501     9.4040     5.6690    25.4960 H     1 LIG   0.0000 
 72 H502    10.3670     4.8240    26.5080 H     1 LIG   0.0000 
 73 H531     9.8270     3.3500    24.8450 H     1 LIG   0.0000 
 74 H532    10.0890     4.4620    23.6780 H     1 LIG   0.0000 
@<TRIPOS>BOND
  1   1   2  1   
  2   1  50  1   
  3   1  51  1   
  4   1  52  1   
  5   2   3  1   
  6   2  53  1   
  7   2  54  1   
  8   3   4  1   
  9   3  55  1   
 10   3  56  1   
 11   4   5  1   
 12   4  40  2   
 13   5   6  2   
 14   5  41  1   
 15   6   7  1   
 16   6  30  1   
 17   7   8  ar  
 18   7  28  ar  
 19   8   9  ar  
 20   8  43  1   
 21   9  10  ar  
 22   9  44  1   
 23  10  11  ar  
 24  10  45  1   
 25  11  12  1   
 26  11  28  ar  
 27  12  13  1   
 28  12  14  1   
 29  12  57  1   
 30  13  58  1   
 31  13  59  1   
 32  13  60  1   
 33  14  15  1   
 34  14  16  am  
 35  15  61  1   
 36  15  62  1   
 37  15  63  1   
 38  16  17  2   
 39  16  18  1   
 40  18  19  1   
 41  18  27  1   
 42  18  64  1   
 43  19  20  1   
 44  19  65  1   
 45  19  66  1   
 46  20  21  1   
 47  20  67  1   
 48  20  68  1   
 49  21  22  am  
 50  21  26  1   
 51  22  23  2   
 52  22  24  1   
 53  24  25  1   
 54  24  69  1   
 55  24  70  1   
 56  26  27  1   
 57  26  71  1   
 58  26  72  1   
 59  27  73  1   
 60  27  74  1   
 61  28  29  1   
 62  30  31  1   
 63  30  40  1   
 64  31  32  2   
 65  31  33  2   
 66  31  34  1   
 67  34  35  ar  
 68  34  39  ar  
 69  35  36  ar  
 70  35  46  1   
 71  36  37  ar  
 72  36  47  1   
 73  37  38  ar  
 74  37  48  1   
 75  38  39  ar  
 76  39  49  1   
 77  40  42  1   
@<TRIPOS>SUBSTRUCTURE
  1 LIG  28 GROUP 4 **** **** 0
@<TRIPOS>PROPERTY_DATA
index	|	ligand320
Name	|	MAK-UNK-8fd-12
ChemPlp	|	-103.602
MM-GBSA Nwat=0	|	26.3808
STDEV0	|	5.3388
MM-GBSA Nwat=30	|	57.5976
STDEV30	|	18.8352
MM-GBSA Nwat=60	|	11.5385
STDEV60	|	18.6655
ST.DEV < 10%	|	N
RMSD LIG < 2	|	
DIST < 5	|	
DIST < 3.5	|	N

# MOE 2019.01 (io_trps.svl 2018.10)

@<TRIPOS>MOLECULE
ligand314
72 77 1 0 0 
SMALL
USER_CHARGES


@<TRIPOS>ATOM
  1 O1      12.3820     6.6220    24.2570 O.2   1 LIG   0.0000 
  2 C2      11.3730     6.3680    24.8540 C.2   1 LIG   0.0000 
  3 C3      10.5680     7.4850    25.4970 C.3   1 LIG   0.0000 
  4 H4      10.1300     8.0330    24.7850 H     1 LIG   0.0000 
  5 H5       9.8680     7.0920    26.0930 H     1 LIG   0.0000 
  6 CL6     11.6520     8.5200    26.4580 Cl    1 LIG   0.0000 
  7 N7      10.9360     5.0380    24.9590 N.am  1 LIG   0.0000 
  8 C8      11.6310     3.8790    24.3790 C.3   1 LIG   0.0000 
  9 H9      12.0950     3.3780    25.1090 H     1 LIG   0.0000 
 10 H10     12.3060     4.2020    23.7150 H     1 LIG   0.0000 
 11 C11     10.6540     2.9480    23.6800 C.ar  1 LIG   0.0000 
 12 C12     11.1470     1.9350    22.8640 C.ar  1 LIG   0.0000 
 13 H13     12.1350     1.8360    22.7450 H     1 LIG   0.0000 
 14 C14     10.2900     1.0560    22.2090 C.ar  1 LIG   0.0000 
 15 N15     10.8320    -0.0080    21.3520 N.4   1 LIG   1.0000 
 16 H16     11.7530     0.2420    21.0520 H     1 LIG   0.0000 
 17 H17     10.2420    -0.1280    20.5540 H     1 LIG   0.0000 
 18 C18     10.8910    -1.2660    22.1110 C.3   1 LIG   0.0000 
 19 H19     11.0910    -1.0680    23.0700 H     1 LIG   0.0000 
 20 H20     11.6100    -1.8500    21.7340 H     1 LIG   0.0000 
 21 C21      9.5480    -1.9840    22.0100 C.2   1 LIG   0.0000 
 22 C22      9.1010    -2.9930    22.8960 C.2   1 LIG   0.0000 
 23 H23      9.5930    -3.3550    23.6880 H     1 LIG   0.0000 
 24 C24      7.8670    -3.3720    22.4580 C.2   1 LIG   0.0000 
 25 C25      7.0430    -4.3950    23.0740 C.ar  1 LIG   0.0000 
 26 C26      6.2400    -5.2100    22.2830 C.ar  1 LIG   0.0000 
 27 H27      6.2310    -5.0910    21.2900 H     1 LIG   0.0000 
 28 C28      5.4500    -6.1910    22.8730 C.ar  1 LIG   0.0000 
 29 H29      4.8740    -6.7770    22.3050 H     1 LIG   0.0000 
 30 C30      5.4620    -6.3550    24.2550 C.ar  1 LIG   0.0000 
 31 H31      4.8930    -7.0600    24.6790 H     1 LIG   0.0000 
 32 C32      6.2640    -5.5400    25.0460 C.ar  1 LIG   0.0000 
 33 H33      6.2730    -5.6590    26.0380 H     1 LIG   0.0000 
 34 C34      7.0550    -4.5590    24.4560 C.ar  1 LIG   0.0000 
 35 F35      7.8220    -3.7790    25.2120 F     1 LIG   0.0000 
 36 N36      7.5580    -2.6220    21.3570 N.pl3 1 LIG   0.0000 
 37 S37      6.1200    -2.7400    20.4740 S.o2  1 LIG   0.0000 
 38 O38      6.1970    -3.8660    19.5800 O.2   1 LIG   0.0000 
 39 O39      5.0150    -2.9200    21.3790 O.2   1 LIG   0.0000 
 40 C40      5.8850    -1.2820    19.5530 C.ar  1 LIG   0.0000 
 41 C41      5.6700    -0.0770    20.2130 C.ar  1 LIG   0.0000 
 42 H42      5.6510    -0.0480    21.2130 H     1 LIG   0.0000 
 43 C43      5.4820     1.0870    19.4770 C.ar  1 LIG   0.0000 
 44 H44      5.3280     1.9610    19.9380 H     1 LIG   0.0000 
 45 C45      5.5130     1.0180    18.0870 C.ar  1 LIG   0.0000 
 46 H46      5.3790     1.8470    17.5460 H     1 LIG   0.0000 
 47 N47      5.7210    -0.1540    17.4680 N.ar  1 LIG   0.0000 
 48 C48      5.9050    -1.2880    18.1620 C.ar  1 LIG   0.0000 
 49 H49      6.0580    -2.1470    17.6740 H     1 LIG   0.0000 
 50 C50      8.5800    -1.7650    21.0630 C.2   1 LIG   0.0000 
 51 H51      8.6150    -1.1090    20.3090 H     1 LIG   0.0000 
 52 C52      8.9150     1.1850    22.3700 C.ar  1 LIG   0.0000 
 53 H53      8.2910     0.5590    21.9020 H     1 LIG   0.0000 
 54 C54      8.4140     2.1920    23.1880 C.ar  1 LIG   0.0000 
 55 H55      7.4260     2.2870    23.3080 H     1 LIG   0.0000 
 56 C56      9.2750     3.0680    23.8390 C.ar  1 LIG   0.0000 
 57 C57      8.6420     4.1390    24.7110 C.3   1 LIG   0.0000 
 58 C58      8.1400     5.3170    23.8920 C.ar  1 LIG   0.0000 
 59 C59      7.9320     5.1680    22.5240 C.ar  1 LIG   0.0000 
 60 H60      8.1130     4.2900    22.0810 H     1 LIG   0.0000 
 61 C61      7.4730     6.2480    21.7790 C.ar  1 LIG   0.0000 
 62 H62      7.3220     6.1490    20.7950 H     1 LIG   0.0000 
 63 C63      7.2230     7.4670    22.4010 C.ar  1 LIG   0.0000 
 64 H64      6.8920     8.2440    21.8650 H     1 LIG   0.0000 
 65 C65      7.4330     7.6040    23.7680 C.ar  1 LIG   0.0000 
 66 H66      7.2520     8.4820    24.2110 H     1 LIG   0.0000 
 67 C67      7.8920     6.5320    24.5240 C.ar  1 LIG   0.0000 
 68 H68      8.0430     6.6320    25.5080 H     1 LIG   0.0000 
 69 C69      9.7300     4.5930    25.6720 C.3   1 LIG   0.0000 
 70 H70      9.3800     5.3510    26.2220 H     1 LIG   0.0000 
 71 H71      9.9710     3.8290    26.2710 H     1 LIG   0.0000 
 72 H72      7.8830     3.7440    25.2280 H     1 LIG   0.0000 
@<TRIPOS>BOND
  1   1   2  2   
  2   2   3  1   
  3   2   7  am  
  4   3   4  1   
  5   3   5  1   
  6   3   6  1   
  7   7   8  1   
  8   7  69  1   
  9   8   9  1   
 10   8  10  1   
 11   8  11  1   
 12  11  12  ar  
 13  11  56  ar  
 14  12  13  1   
 15  12  14  ar  
 16  14  15  1   
 17  14  52  ar  
 18  15  16  1   
 19  15  17  1   
 20  15  18  1   
 21  18  19  1   
 22  18  20  1   
 23  18  21  1   
 24  21  22  1   
 25  21  50  2   
 26  22  23  1   
 27  22  24  2   
 28  24  25  1   
 29  24  36  1   
 30  25  26  ar  
 31  25  34  ar  
 32  26  27  1   
 33  26  28  ar  
 34  28  29  1   
 35  28  30  ar  
 36  30  31  1   
 37  30  32  ar  
 38  32  33  1   
 39  32  34  ar  
 40  34  35  1   
 41  36  37  1   
 42  36  50  1   
 43  37  38  2   
 44  37  39  2   
 45  37  40  1   
 46  40  41  ar  
 47  40  48  ar  
 48  41  42  1   
 49  41  43  ar  
 50  43  44  1   
 51  43  45  ar  
 52  45  46  1   
 53  45  47  ar  
 54  47  48  ar  
 55  48  49  1   
 56  50  51  1   
 57  52  53  1   
 58  52  54  ar  
 59  54  55  1   
 60  54  56  ar  
 61  56  57  1   
 62  57  58  1   
 63  57  69  1   
 64  57  72  1   
 65  58  59  ar  
 66  58  67  ar  
 67  59  60  1   
 68  59  61  ar  
 69  61  62  1   
 70  61  63  ar  
 71  63  64  1   
 72  63  65  ar  
 73  65  66  1   
 74  65  67  ar  
 75  67  68  1   
 76  69  70  1   
 77  69  71  1   
@<TRIPOS>SUBSTRUCTURE
  1 LIG  52 GROUP 4 **** **** 0
@<TRIPOS>PROPERTY_DATA
index	|	ligand314
Name	|	MAK-UNK-702-9
ChemPlp	|	-101.504
MM-GBSA Nwat=0	|	40.5872
STDEV0	|	12.1707
MM-GBSA Nwat=30	|	59.6162
STDEV30	|	16.8605
MM-GBSA Nwat=60	|	22.9663
STDEV60	|	17.0369
ST.DEV < 10%	|	N
RMSD LIG < 2	|	
DIST < 5	|	
DIST < 3.5	|	N

# MOE 2019.01 (io_trps.svl 2018.10)

@<TRIPOS>MOLECULE
ligand317
74 77 1 0 0 
SMALL
USER_CHARGES


@<TRIPOS>ATOM
  1 C1      13.0170     1.3780    23.4950 C.3   1 LIG   0.0000 
  2 H2      13.7260     2.0650    23.3340 H     1 LIG   0.0000 
  3 H3      12.7190     1.4230    24.4480 H     1 LIG   0.0000 
  4 H4      13.3850     0.4680    23.3030 H     1 LIG   0.0000 
  5 C5      11.8340     1.6500    22.5810 C.3   1 LIG   0.0000 
  6 C6      11.2750     3.0330    22.8720 C.3   1 LIG   0.0000 
  7 H7      10.3330     3.0890    22.5400 H     1 LIG   0.0000 
  8 H8      11.2900     3.1970    23.8590 H     1 LIG   0.0000 
  9 N9      12.0960     4.0460    22.1940 N.4   1 LIG   1.0000 
 10 H10     12.7320     3.5950    21.5680 H     1 LIG   0.0000 
 11 H11     11.5030     4.6640    21.6780 H     1 LIG   0.0000 
 12 C12     12.8520     4.8130    23.1940 C.3   1 LIG   0.0000 
 13 H13     13.3900     5.5200    22.7350 H     1 LIG   0.0000 
 14 H14     13.4650     4.1990    23.6910 H     1 LIG   0.0000 
 15 C15     11.8830     5.4670    24.1730 C.2   1 LIG   0.0000 
 16 C16     12.1950     5.8150    25.5100 C.2   1 LIG   0.0000 
 17 H17     13.0710     5.6840    25.9740 H     1 LIG   0.0000 
 18 C18     11.0640     6.3640    26.0390 C.2   1 LIG   0.0000 
 19 C19     10.9340     6.8550    27.3980 C.ar  1 LIG   0.0000 
 20 C20      9.7220     6.7340    28.0670 C.ar  1 LIG   0.0000 
 21 H21      8.9390     6.3100    27.6120 H     1 LIG   0.0000 
 22 C22      9.5970     7.2050    29.3700 C.ar  1 LIG   0.0000 
 23 H23      8.7250     7.1170    29.8520 H     1 LIG   0.0000 
 24 C24     10.6850     7.7970    30.0030 C.ar  1 LIG   0.0000 
 25 H25     10.5950     8.1360    30.9390 H     1 LIG   0.0000 
 26 C26     11.8980     7.9180    29.3330 C.ar  1 LIG   0.0000 
 27 H27     12.6800     8.3430    29.7880 H     1 LIG   0.0000 
 28 C28     12.0230     7.4480    28.0300 C.ar  1 LIG   0.0000 
 29 F29     13.1830     7.5630    27.3900 F     1 LIG   0.0000 
 30 N30     10.0990     6.3680    25.0690 N.pl3 1 LIG   0.0000 
 31 S31      8.5280     6.9610    25.2650 S.o2  1 LIG   0.0000 
 32 O32      7.8090     6.1200    26.1870 O.2   1 LIG   0.0000 
 33 O33      8.5820     8.3030    25.7840 O.2   1 LIG   0.0000 
 34 C34      7.7140     6.9660    23.7280 C.ar  1 LIG   0.0000 
 35 C35      7.7500     5.8300    22.9250 C.ar  1 LIG   0.0000 
 36 H36      8.2420     5.0150    23.2300 H     1 LIG   0.0000 
 37 C37      7.0990     5.8350    21.6960 C.ar  1 LIG   0.0000 
 38 H38      7.1170     5.0250    21.1090 H     1 LIG   0.0000 
 39 C39      6.4220     6.9830    21.2970 C.ar  1 LIG   0.0000 
 40 H40      5.9500     6.9990    20.4160 H     1 LIG   0.0000 
 41 N41      6.3990     8.0680    22.0840 N.ar  1 LIG   0.0000 
 42 C42      7.0210     8.0830    23.2730 C.ar  1 LIG   0.0000 
 43 H43      6.9860     8.9070    23.8390 H     1 LIG   0.0000 
 44 C44     10.5820     5.8180    23.9160 C.2   1 LIG   0.0000 
 45 H45     10.0860     5.6960    23.0560 H     1 LIG   0.0000 
 46 N46     10.7910     0.6400    22.8160 N.am  1 LIG   0.0000 
 47 C47     10.8000    -0.1500    24.0560 C.3   1 LIG   0.0000 
 48 H48     11.5770     0.1260    24.6210 H     1 LIG   0.0000 
 49 H49      9.9500     0.0080    24.5580 H     1 LIG   0.0000 
 50 H50     10.8790    -1.1210    23.8310 H     1 LIG   0.0000 
 51 C51      9.8110     0.4360    21.8810 C.2   1 LIG   0.0000 
 52 O52      9.8040     1.0820    20.8690 O.2   1 LIG   0.0000 
 53 C53      8.7330    -0.6080    22.1250 C.3   1 LIG   0.0000 
 54 H54      8.3090    -0.4890    23.0230 H     1 LIG   0.0000 
 55 C55      7.7060    -0.4830    21.0080 C.3   1 LIG   0.0000 
 56 H56      8.1720    -0.5830    20.1290 H     1 LIG   0.0000 
 57 H57      7.2820     0.4210    21.0600 H     1 LIG   0.0000 
 58 C58      6.6160    -1.5410    21.1070 C.3   1 LIG   0.0000 
 59 H59      5.9960    -1.2990    21.8540 H     1 LIG   0.0000 
 60 H60      6.1070    -1.5630    20.2460 H     1 LIG   0.0000 
 61 N61      7.1700    -2.8800    21.3650 N.am  1 LIG   0.0000 
 62 C62      6.5010    -3.9870    20.8340 C.2   1 LIG   0.0000 
 63 O63      5.5020    -3.8300    20.1870 O.2   1 LIG   0.0000 
 64 C64      7.0380    -5.3880    21.0760 C.3   1 LIG   0.0000 
 65 H65      6.9610    -5.9240    20.2360 H     1 LIG   0.0000 
 66 H66      7.9980    -5.3340    21.3500 H     1 LIG   0.0000 
 67 CL67     6.0950    -6.1700    22.3680 Cl    1 LIG   0.0000 
 68 C68      8.3940    -3.1130    22.1490 C.3   1 LIG   0.0000 
 69 H69      8.8220    -3.9610    21.8360 H     1 LIG   0.0000 
 70 H70      8.1470    -3.2020    23.1140 H     1 LIG   0.0000 
 71 C71      9.3920    -1.9740    22.0000 C.3   1 LIG   0.0000 
 72 H72     10.0880    -2.0610    22.7130 H     1 LIG   0.0000 
 73 H73      9.8250    -2.0420    21.1020 H     1 LIG   0.0000 
 74 H74     12.1310     1.6050    21.6270 H     1 LIG   0.0000 
@<TRIPOS>BOND
  1   1   2  1   
  2   1   3  1   
  3   1   4  1   
  4   1   5  1   
  5   5   6  1   
  6   5  46  1   
  7   5  74  1   
  8   6   7  1   
  9   6   8  1   
 10   6   9  1   
 11   9  10  1   
 12   9  11  1   
 13   9  12  1   
 14  12  13  1   
 15  12  14  1   
 16  12  15  1   
 17  15  16  1   
 18  15  44  2   
 19  16  17  1   
 20  16  18  2   
 21  18  19  1   
 22  18  30  1   
 23  19  20  ar  
 24  19  28  ar  
 25  20  21  1   
 26  20  22  ar  
 27  22  23  1   
 28  22  24  ar  
 29  24  25  1   
 30  24  26  ar  
 31  26  27  1   
 32  26  28  ar  
 33  28  29  1   
 34  30  31  1   
 35  30  44  1   
 36  31  32  2   
 37  31  33  2   
 38  31  34  1   
 39  34  35  ar  
 40  34  42  ar  
 41  35  36  1   
 42  35  37  ar  
 43  37  38  1   
 44  37  39  ar  
 45  39  40  1   
 46  39  41  ar  
 47  41  42  ar  
 48  42  43  1   
 49  44  45  1   
 50  46  47  1   
 51  46  51  am  
 52  47  48  1   
 53  47  49  1   
 54  47  50  1   
 55  51  52  2   
 56  51  53  1   
 57  53  54  1   
 58  53  55  1   
 59  53  71  1   
 60  55  56  1   
 61  55  57  1   
 62  55  58  1   
 63  58  59  1   
 64  58  60  1   
 65  58  61  1   
 66  61  62  am  
 67  61  68  1   
 68  62  63  2   
 69  62  64  1   
 70  64  65  1   
 71  64  66  1   
 72  64  67  1   
 73  68  69  1   
 74  68  70  1   
 75  68  71  1   
 76  71  72  1   
 77  71  73  1   
@<TRIPOS>SUBSTRUCTURE
  1 LIG   6 GROUP 4 **** **** 0
@<TRIPOS>PROPERTY_DATA
index	|	ligand317
Name	|	MAK-UNK-8fd-1
ChemPlp	|	-105.635
MM-GBSA Nwat=0	|	21.2417
STDEV0	|	5.1135
MM-GBSA Nwat=30	|	60.4237
STDEV30	|	13.9736
MM-GBSA Nwat=60	|	38.4848
STDEV60	|	14.4546
ST.DEV < 10%	|	N
RMSD LIG < 2	|	
DIST < 5	|	
DIST < 3.5	|	N

# MOE 2019.01 (io_trps.svl 2018.10)

@<TRIPOS>MOLECULE
ligand321
74 77 1 0 0 
SMALL
USER_CHARGES


@<TRIPOS>ATOM
  1 C1       0.9930     4.2060    18.4960 C.3   1 LIG   0.0000 
  2 N5       2.2990     3.5380    18.6000 N.4   1 LIG   1.0000 
  3 C8       2.3150     2.6780    19.7920 C.3   1 LIG   0.0000 
  4 C11      3.7320     2.1630    20.0280 C.2   1 LIG   0.0000 
  5 C12      4.5730     2.5680    21.0920 C.2   1 LIG   0.0000 
  6 C14      5.7430     1.8850    20.9400 C.2   1 LIG   0.0000 
  7 C15      6.8940     2.0030    21.8110 C.ar  1 LIG   0.0000 
  8 C16      7.5500     0.8510    22.2340 C.ar  1 LIG   0.0000 
  9 C18      8.6570     0.9480    23.0710 C.ar  1 LIG   0.0000 
 10 C20      9.1020     2.2000    23.4810 C.ar  1 LIG   0.0000 
 11 C21     10.3100     2.3150    24.3950 C.3   1 LIG   0.0000 
 12 C22     11.4070     1.3840    23.9040 C.3   1 LIG   0.0000 
 13 N26     10.8030     3.7000    24.3850 N.am  1 LIG   0.0000 
 14 C27     11.9380     4.0700    23.5280 C.3   1 LIG   0.0000 
 15 C31     10.2030     4.6460    25.1750 C.2   1 LIG   0.0000 
 16 O32      9.2760     4.3440    25.8740 O.2   1 LIG   0.0000 
 17 C33     10.7130     6.0780    25.1640 C.3   1 LIG   0.0000 
 18 C35      9.8030     6.9010    26.0670 C.3   1 LIG   0.0000 
 19 C38     10.2710     8.3440    26.1960 C.3   1 LIG   0.0000 
 20 N41     11.7200     8.4330    26.4400 N.am  1 LIG   0.0000 
 21 C42     12.1960     9.4890    27.2220 C.2   1 LIG   0.0000 
 22 O43     11.4280    10.2930    27.6750 O.2   1 LIG   0.0000 
 23 C44     13.6840     9.6190    27.4990 C.3   1 LIG   0.0000 
 24 CL47    14.2000     8.3150    28.5960 Cl    1 LIG   0.0000 
 25 C48     12.6930     7.4650    25.9060 C.3   1 LIG   0.0000 
 26 C51     12.1010     6.0680    25.7880 C.3   1 LIG   0.0000 
 27 C54      8.4520     3.3570    23.0620 C.ar  1 LIG   0.0000 
 28 C56      7.3460     3.2510    22.2250 C.ar  1 LIG   0.0000 
 29 F57      6.7240     4.3560    21.8230 F     1 LIG   0.0000 
 30 N58      5.6270     1.0820    19.8390 N.pl3 1 LIG   0.0000 
 31 S59      6.8300     0.0430    19.2620 S.o2  1 LIG   0.0000 
 32 O60      6.6870    -0.1140    17.8380 O.2   1 LIG   0.0000 
 33 O61      8.1250     0.6000    19.5560 O.2   1 LIG   0.0000 
 34 C62      6.6760    -1.5080    20.0350 C.ar  1 LIG   0.0000 
 35 C63      7.6080    -1.8960    20.9920 C.ar  1 LIG   0.0000 
 36 C65      7.4840    -3.1360    21.6100 C.ar  1 LIG   0.0000 
 37 C67      6.4240    -3.9640    21.2520 C.ar  1 LIG   0.0000 
 38 N69      5.5360    -3.5720    20.3270 N.ar  1 LIG   0.0000 
 39 C70      5.6390    -2.3800    19.7210 C.ar  1 LIG   0.0000 
 40 C72      4.3990     1.2410    19.2620 C.2   1 LIG   0.0000 
 41 H12      4.3530     3.2250    21.8130 H     1 LIG   0.0000 
 42 H72      4.0550     0.7780    18.4450 H     1 LIG   0.0000 
 43 H16      7.2250    -0.0470    21.9360 H     1 LIG   0.0000 
 44 H18      9.1300     0.1210    23.3770 H     1 LIG   0.0000 
 45 H54      8.7760     4.2550    23.3600 H     1 LIG   0.0000 
 46 H63      8.3630    -1.2870    21.2350 H     1 LIG   0.0000 
 47 H65      8.1470    -3.4290    22.3000 H     1 LIG   0.0000 
 48 H67      6.3240    -4.8580    21.6890 H     1 LIG   0.0000 
 49 H70      4.9610    -2.1140    19.0350 H     1 LIG   0.0000 
 50 H11      0.9820     4.7910    17.6850 H     1 LIG   0.0000 
 51 H12      0.2720     3.5170    18.4200 H     1 LIG   0.0000 
 52 H13      0.8380     4.7630    19.3120 H     1 LIG   0.0000 
 53 H51      2.4540     2.9810    17.7850 H     1 LIG   0.0000 
 54 H52      3.0200     4.2270    18.6760 H     1 LIG   0.0000 
 55 H81      1.6980     1.9030    19.6530 H     1 LIG   0.0000 
 56 H82      2.0150     3.2040    20.5880 H     1 LIG   0.0000 
 57 H21     10.0490     2.0610    25.3270 H     1 LIG   0.0000 
 58 H221    11.0720     0.4420    23.9110 H     1 LIG   0.0000 
 59 H222    11.6680     1.6380    22.9730 H     1 LIG   0.0000 
 60 H223    12.2020     1.4590    24.5060 H     1 LIG   0.0000 
 61 H271    12.2520     3.2660    23.0240 H     1 LIG   0.0000 
 62 H272    11.6520     4.7780    22.8820 H     1 LIG   0.0000 
 63 H273    12.6840     4.4190    24.0960 H     1 LIG   0.0000 
 64 H33     10.7350     6.4490    24.2360 H     1 LIG   0.0000 
 65 H351     9.7900     6.4840    26.9760 H     1 LIG   0.0000 
 66 H352     8.8800     6.8950    25.6840 H     1 LIG   0.0000 
 67 H381    10.0560     8.8300    25.3500 H     1 LIG   0.0000 
 68 H382     9.7880     8.7720    26.9600 H     1 LIG   0.0000 
 69 H441    14.1900     9.5520    26.6400 H     1 LIG   0.0000 
 70 H442    13.8680    10.5050    27.9260 H     1 LIG   0.0000 
 71 H481    13.4830     7.4310    26.5180 H     1 LIG   0.0000 
 72 H482    12.9860     7.7690    24.9990 H     1 LIG   0.0000 
 73 H511    12.7050     5.5100    25.2190 H     1 LIG   0.0000 
 74 H512    12.0400     5.6660    26.7020 H     1 LIG   0.0000 
@<TRIPOS>BOND
  1   1   2  1   
  2   1  50  1   
  3   1  51  1   
  4   1  52  1   
  5   2   3  1   
  6   2  53  1   
  7   2  54  1   
  8   3   4  1   
  9   3  55  1   
 10   3  56  1   
 11   4   5  1   
 12   4  40  2   
 13   5   6  2   
 14   5  41  1   
 15   6   7  1   
 16   6  30  1   
 17   7   8  ar  
 18   7  28  ar  
 19   8   9  ar  
 20   8  43  1   
 21   9  10  ar  
 22   9  44  1   
 23  10  11  1   
 24  10  27  ar  
 25  11  12  1   
 26  11  13  1   
 27  11  57  1   
 28  12  58  1   
 29  12  59  1   
 30  12  60  1   
 31  13  14  1   
 32  13  15  am  
 33  14  61  1   
 34  14  62  1   
 35  14  63  1   
 36  15  16  2   
 37  15  17  1   
 38  17  18  1   
 39  17  26  1   
 40  17  64  1   
 41  18  19  1   
 42  18  65  1   
 43  18  66  1   
 44  19  20  1   
 45  19  67  1   
 46  19  68  1   
 47  20  21  am  
 48  20  25  1   
 49  21  22  2   
 50  21  23  1   
 51  23  24  1   
 52  23  69  1   
 53  23  70  1   
 54  25  26  1   
 55  25  71  1   
 56  25  72  1   
 57  26  73  1   
 58  26  74  1   
 59  27  28  ar  
 60  27  45  1   
 61  28  29  1   
 62  30  31  1   
 63  30  40  1   
 64  31  32  2   
 65  31  33  2   
 66  31  34  1   
 67  34  35  ar  
 68  34  39  ar  
 69  35  36  ar  
 70  35  46  1   
 71  36  37  ar  
 72  36  47  1   
 73  37  38  ar  
 74  37  48  1   
 75  38  39  ar  
 76  39  49  1   
 77  40  42  1   
@<TRIPOS>SUBSTRUCTURE
  1 LIG  27 GROUP 4 **** **** 0
@<TRIPOS>PROPERTY_DATA
index	|	ligand321
Name	|	MAK-UNK-8fd-13
ChemPlp	|	-105.031
MM-GBSA Nwat=0	|	61.8264
STDEV0	|	14.6451
MM-GBSA Nwat=30	|	63.8836
STDEV30	|	21.061
MM-GBSA Nwat=60	|	26.8207
STDEV60	|	19.29
ST.DEV < 10%	|	N
RMSD LIG < 2	|	
DIST < 5	|	
DIST < 3.5	|	N

# MOE 2019.01 (io_trps.svl 2018.10)

@<TRIPOS>MOLECULE
ligand351
74 77 1 0 0 
SMALL
USER_CHARGES


@<TRIPOS>ATOM
  1 C1       1.0160     4.2610    18.4170 C.3   1 LIG   0.0000 
  2 N5       2.3100     3.5800    18.5660 N.4   1 LIG   1.0000 
  3 C8       2.2580     2.6770    19.7250 C.3   1 LIG   0.0000 
  4 C11      3.6620     2.1740    20.0420 C.2   1 LIG   0.0000 
  5 C12      4.4080     2.5260    21.1930 C.2   1 LIG   0.0000 
  6 C14      5.6020     1.8750    21.0930 C.2   1 LIG   0.0000 
  7 C15      6.6790     1.9580    22.0610 C.ar  1 LIG   0.0000 
  8 C16      7.3280     0.8020    22.4790 C.ar  1 LIG   0.0000 
  9 C18      8.3620     0.8820    23.4060 C.ar  1 LIG   0.0000 
 10 C20      8.7460     2.1190    23.9160 C.ar  1 LIG   0.0000 
 11 C22      8.0960     3.2750    23.4970 C.ar  1 LIG   0.0000 
 12 C24      7.0620     3.1950    22.5700 C.ar  1 LIG   0.0000 
 13 F25      6.4410     4.3010    22.1700 F     1 LIG   0.0000 
 14 N26      5.5910     1.1410    19.9390 N.pl3 1 LIG   0.0000 
 15 S27      6.8590     0.1620    19.3980 S.o2  1 LIG   0.0000 
 16 O28      8.1130     0.7120    19.8450 O.2   1 LIG   0.0000 
 17 O29      6.8440     0.1090    17.9590 O.2   1 LIG   0.0000 
 18 C30      6.6680    -1.4430    20.0400 C.ar  1 LIG   0.0000 
 19 C31      5.6960    -2.3110    19.5490 C.ar  1 LIG   0.0000 
 20 N33      5.5730    -3.5440    20.0660 N.ar  1 LIG   0.0000 
 21 C34      6.3670    -3.9780    21.0560 C.ar  1 LIG   0.0000 
 22 C36      7.3530    -3.1500    21.5830 C.ar  1 LIG   0.0000 
 23 C37      8.2610    -3.6230    22.7060 C.3   1 LIG   0.0000 
 24 C38      9.4010    -2.6340    22.8860 C.3   1 LIG   0.0000 
 25 N42      7.4900    -3.7150    23.9540 N.am  1 LIG   0.0000 
 26 C43      6.2090    -3.0060    24.0800 C.3   1 LIG   0.0000 
 27 C47      7.9660    -4.4620    25.0000 C.2   1 LIG   0.0000 
 28 O48      9.0120    -5.0400    24.8960 O.2   1 LIG   0.0000 
 29 C49      7.1690    -4.5570    26.2900 C.3   1 LIG   0.0000 
 30 C51      6.1130    -5.6380    26.1050 C.3   1 LIG   0.0000 
 31 C54      5.3040    -5.8760    27.3730 C.3   1 LIG   0.0000 
 32 N57      6.1620    -5.9710    28.5650 N.am  1 LIG   0.0000 
 33 C58      5.7580    -6.8110    29.6060 C.2   1 LIG   0.0000 
 34 O59      4.7340    -7.4310    29.5140 O.2   1 LIG   0.0000 
 35 C60      6.6140    -6.9390    30.8550 C.3   1 LIG   0.0000 
 36 CL63     5.9250    -5.9330    32.1520 Cl    1 LIG   0.0000 
 37 C64      7.4260    -5.2310    28.7140 C.3   1 LIG   0.0000 
 38 C67      8.1260    -5.0220    27.3780 C.3   1 LIG   0.0000 
 39 C70      7.5040    -1.8670    21.0670 C.ar  1 LIG   0.0000 
 40 C72      4.4090     1.3140    19.2770 C.2   1 LIG   0.0000 
 41 H12      4.1160     3.1320    21.9330 H     1 LIG   0.0000 
 42 H72      4.1410     0.8970    18.4080 H     1 LIG   0.0000 
 43 H16      7.0520    -0.0870    22.1140 H     1 LIG   0.0000 
 44 H18      8.8300     0.0510    23.7070 H     1 LIG   0.0000 
 45 H20      9.4880     2.1760    24.5830 H     1 LIG   0.0000 
 46 H22      8.3720     4.1640    23.8630 H     1 LIG   0.0000 
 47 H31      5.0890    -2.0160    18.8110 H     1 LIG   0.0000 
 48 H34      6.2490    -4.9030    21.4190 H     1 LIG   0.0000 
 49 H70      8.2070    -1.2560    21.4310 H     1 LIG   0.0000 
 50 H11      1.0520     4.8760    17.6290 H     1 LIG   0.0000 
 51 H12      0.2960     3.5820    18.2780 H     1 LIG   0.0000 
 52 H13      0.8210     4.7900    19.2430 H     1 LIG   0.0000 
 53 H51      2.5050     3.0510    17.7410 H     1 LIG   0.0000 
 54 H52      3.0300     4.2590    18.7050 H     1 LIG   0.0000 
 55 H81      1.6640     1.9000    19.5160 H     1 LIG   0.0000 
 56 H82      1.8940     3.1700    20.5160 H     1 LIG   0.0000 
 57 H37      8.6340    -4.5220    22.4770 H     1 LIG   0.0000 
 58 H381     9.9250    -2.5710    22.0370 H     1 LIG   0.0000 
 59 H382     9.0280    -1.7340    23.1150 H     1 LIG   0.0000 
 60 H383     9.9990    -2.9450    23.6250 H     1 LIG   0.0000 
 61 H431     6.0140    -2.5150    23.2310 H     1 LIG   0.0000 
 62 H432     5.4790    -3.6660    24.2580 H     1 LIG   0.0000 
 63 H433     6.2610    -2.3550    24.8380 H     1 LIG   0.0000 
 64 H49      6.7520    -3.6780    26.5250 H     1 LIG   0.0000 
 65 H511     6.5670    -6.4900    25.8480 H     1 LIG   0.0000 
 66 H512     5.4910    -5.3580    25.3740 H     1 LIG   0.0000 
 67 H541     4.6640    -5.1180    27.4950 H     1 LIG   0.0000 
 68 H542     4.7930    -6.7300    27.2740 H     1 LIG   0.0000 
 69 H601     6.6340    -7.8950    31.1490 H     1 LIG   0.0000 
 70 H602     7.5440    -6.6330    30.6550 H     1 LIG   0.0000 
 71 H641     8.0330    -5.7460    29.3190 H     1 LIG   0.0000 
 72 H642     7.2310    -4.3380    29.1190 H     1 LIG   0.0000 
 73 H671     8.8410    -4.3320    27.4940 H     1 LIG   0.0000 
 74 H672     8.5400    -5.8870    27.0940 H     1 LIG   0.0000 
@<TRIPOS>BOND
  1   1   2  1   
  2   1  50  1   
  3   1  51  1   
  4   1  52  1   
  5   2   3  1   
  6   2  53  1   
  7   2  54  1   
  8   3   4  1   
  9   3  55  1   
 10   3  56  1   
 11   4   5  1   
 12   4  40  2   
 13   5   6  2   
 14   5  41  1   
 15   6   7  1   
 16   6  14  1   
 17   7   8  ar  
 18   7  12  ar  
 19   8   9  ar  
 20   8  43  1   
 21   9  10  ar  
 22   9  44  1   
 23  10  11  ar  
 24  10  45  1   
 25  11  12  ar  
 26  11  46  1   
 27  12  13  1   
 28  14  15  1   
 29  14  40  1   
 30  15  16  2   
 31  15  17  2   
 32  15  18  1   
 33  18  19  ar  
 34  18  39  ar  
 35  19  20  ar  
 36  19  47  1   
 37  20  21  ar  
 38  21  22  ar  
 39  21  48  1   
 40  22  23  1   
 41  22  39  ar  
 42  23  24  1   
 43  23  25  1   
 44  23  57  1   
 45  24  58  1   
 46  24  59  1   
 47  24  60  1   
 48  25  26  1   
 49  25  27  am  
 50  26  61  1   
 51  26  62  1   
 52  26  63  1   
 53  27  28  2   
 54  27  29  1   
 55  29  30  1   
 56  29  38  1   
 57  29  64  1   
 58  30  31  1   
 59  30  65  1   
 60  30  66  1   
 61  31  32  1   
 62  31  67  1   
 63  31  68  1   
 64  32  33  am  
 65  32  37  1   
 66  33  34  2   
 67  33  35  1   
 68  35  36  1   
 69  35  69  1   
 70  35  70  1   
 71  37  38  1   
 72  37  71  1   
 73  37  72  1   
 74  38  73  1   
 75  38  74  1   
 76  39  49  1   
 77  40  42  1   
@<TRIPOS>SUBSTRUCTURE
  1 LIG  26 GROUP 4 **** **** 0
@<TRIPOS>PROPERTY_DATA
index	|	ligand351
Name	|	MAK-UNK-8fd-7
ChemPlp	|	-107.794
MM-GBSA Nwat=0	|	71.7924
STDEV0	|	6.3137
MM-GBSA Nwat=30	|	65.8494
STDEV30	|	16.3356
MM-GBSA Nwat=60	|	22.3537
STDEV60	|	17.0787
ST.DEV < 10%	|	N
RMSD LIG < 2	|	
DIST < 5	|	
DIST < 3.5	|	N

# MOE 2019.01 (io_trps.svl 2018.10)

@<TRIPOS>MOLECULE
ligand325
74 77 1 0 0 
SMALL
NO_CHARGES


@<TRIPOS>ATOM
  1 C1       9.4280    -0.3000    25.1460 C.3   1 LIG   0.0000 
  2 C5      10.3940     0.5860    24.3760 C.3   1 LIG   0.0000 
  3 C7      11.8110     0.3340    24.8640 C.3   1 LIG   0.0000 
  4 N11     10.3070     0.2750    22.9420 N.am  1 LIG   0.0000 
  5 C12      9.5250     1.0430    22.1200 C.2   1 LIG   0.0000 
  6 O13      9.4540     0.7890    20.9490 O.2   1 LIG   0.0000 
  7 C14      8.7470     2.2180    22.6910 C.3   1 LIG   0.0000 
  8 C16      9.7530     3.2820    23.1060 C.3   1 LIG   0.0000 
  9 C19      9.0760     4.5460    23.6200 C.3   1 LIG   0.0000 
 10 N22      7.9680     4.9700    22.7500 N.am  1 LIG   0.0000 
 11 C23      7.7030     6.3380    22.6350 C.2   1 LIG   0.0000 
 12 O24      8.3720     7.1310    23.2370 O.2   1 LIG   0.0000 
 13 C25      6.5680     6.8200    21.7470 C.3   1 LIG   0.0000 
 14 CL28     6.0980     8.4680    22.2270 Cl    1 LIG   0.0000 
 15 C29      7.1270     4.0290    21.9910 C.3   1 LIG   0.0000 
 16 C32      7.9020     2.7900    21.5620 C.3   1 LIG   0.0000 
 17 C35     11.0590    -0.8610    22.3890 C.3   1 LIG   0.0000 
 18 C36     12.5290    -0.4910    22.2800 C.3   1 LIG   0.0000 
 19 C40     10.9060    -2.0640    23.3060 C.3   1 LIG   0.0000 
 20 C43      9.4980    -2.6340    23.1660 C.2   1 LIG   0.0000 
 21 C44      8.9350    -3.6170    24.0160 C.2   1 LIG   0.0000 
 22 C46      7.6750    -3.8520    23.5510 C.2   1 LIG   0.0000 
 23 C47      6.7400    -4.8000    24.1250 C.ar  1 LIG   0.0000 
 24 C48      5.8530    -5.4860    23.3020 C.ar  1 LIG   0.0000 
 25 C50      4.9560    -6.3970    23.8510 C.ar  1 LIG   0.0000 
 26 C52      4.9460    -6.6200    25.2250 C.ar  1 LIG   0.0000 
 27 C54      5.8320    -5.9340    26.0480 C.ar  1 LIG   0.0000 
 28 C56      6.7290    -5.0240    25.4980 C.ar  1 LIG   0.0000 
 29 F57      7.5770    -4.3680    26.2860 F     1 LIG   0.0000 
 30 N58      7.4610    -3.0400    22.4710 N.pl3 1 LIG   0.0000 
 31 S59      6.0320    -2.9790    21.5690 S.o2  1 LIG   0.0000 
 32 O60      5.9390    -4.1510    20.7380 O.2   1 LIG   0.0000 
 33 O61      4.9030    -2.9330    22.4620 O.2   1 LIG   0.0000 
 34 C62      6.0380    -1.5560    20.5680 C.ar  1 LIG   0.0000 
 35 C63      5.8000    -1.6740    19.2030 C.ar  1 LIG   0.0000 
 36 C65      5.8050    -0.5360    18.4030 C.ar  1 LIG   0.0000 
 37 C67      6.0500     0.7000    18.9920 C.ar  1 LIG   0.0000 
 38 N69      6.2770     0.7940    20.3100 N.ar  1 LIG   0.0000 
 39 C70      6.2760    -0.2930    21.0980 C.ar  1 LIG   0.0000 
 40 C72      8.5710    -2.2860    22.2160 C.2   1 LIG   0.0000 
 41 H44      9.3750    -4.0530    24.8010 H     1 LIG   0.0000 
 42 H72      8.6860    -1.6140    21.4840 H     1 LIG   0.0000 
 43 H48      5.8600    -5.3250    22.3150 H     1 LIG   0.0000 
 44 H50      4.3190    -6.8910    23.2600 H     1 LIG   0.0000 
 45 H52      4.3010    -7.2740    25.6200 H     1 LIG   0.0000 
 46 H54      5.8250    -6.0950    27.0350 H     1 LIG   0.0000 
 47 H63      5.6270    -2.5720    18.7980 H     1 LIG   0.0000 
 48 H65      5.6350    -0.6060    17.4200 H     1 LIG   0.0000 
 49 H67      6.0560     1.5260    18.4280 H     1 LIG   0.0000 
 50 H70      6.4490    -0.1920    22.0780 H     1 LIG   0.0000 
 51 H11      9.4870    -0.0880    26.1210 H     1 LIG   0.0000 
 52 H12      8.4950    -0.1340    24.8240 H     1 LIG   0.0000 
 53 H13      9.6660    -1.2600    24.9980 H     1 LIG   0.0000 
 54 H5      10.1560     1.5460    24.5230 H     1 LIG   0.0000 
 55 H71     11.8700     0.5460    25.8390 H     1 LIG   0.0000 
 56 H72     12.0490    -0.6260    24.7160 H     1 LIG   0.0000 
 57 H73     12.4460     0.9170    24.3570 H     1 LIG   0.0000 
 58 H14      8.1780     1.9350    23.4640 H     1 LIG   0.0000 
 59 H161    10.3160     3.5190    22.3140 H     1 LIG   0.0000 
 60 H162    10.3340     2.9110    23.8300 H     1 LIG   0.0000 
 61 H191     8.7180     4.3700    24.5370 H     1 LIG   0.0000 
 62 H192     9.7530     5.2800    23.6620 H     1 LIG   0.0000 
 63 H251     6.8690     6.8240    20.7930 H     1 LIG   0.0000 
 64 H252     5.7830     6.2080    21.8460 H     1 LIG   0.0000 
 65 H291     6.7800     4.4910    21.1750 H     1 LIG   0.0000 
 66 H292     6.3590     3.7470    22.5660 H     1 LIG   0.0000 
 67 H321     7.2520     2.0930    21.2620 H     1 LIG   0.0000 
 68 H322     8.5040     3.0350    20.8020 H     1 LIG   0.0000 
 69 H35     10.7040    -1.0860    21.4820 H     1 LIG   0.0000 
 70 H361    13.0410    -1.2630    21.9040 H     1 LIG   0.0000 
 71 H362    12.6300     0.3010    21.6770 H     1 LIG   0.0000 
 72 H363    12.8840    -0.2660    23.1880 H     1 LIG   0.0000 
 73 H401    11.5750    -2.7630    23.0530 H     1 LIG   0.0000 
 74 H402    11.0600    -1.7830    24.2530 H     1 LIG   0.0000 
@<TRIPOS>BOND
  1   1   2  1   
  2   1  51  1   
  3   1  52  1   
  4   1  53  1   
  5   2   3  1   
  6   2   4  1   
  7   2  54  1   
  8   3  55  1   
  9   3  56  1   
 10   3  57  1   
 11   4   5  am  
 12   4  17  1   
 13   5   6  2   
 14   5   7  1   
 15   7   8  1   
 16   7  16  1   
 17   7  58  1   
 18   8   9  1   
 19   8  59  1   
 20   8  60  1   
 21   9  10  1   
 22   9  61  1   
 23   9  62  1   
 24  10  11  am  
 25  10  15  1   
 26  11  12  2   
 27  11  13  1   
 28  13  14  1   
 29  13  63  1   
 30  13  64  1   
 31  15  16  1   
 32  15  65  1   
 33  15  66  1   
 34  16  67  1   
 35  16  68  1   
 36  17  18  1   
 37  17  19  1   
 38  17  69  1   
 39  18  70  1   
 40  18  71  1   
 41  18  72  1   
 42  19  20  1   
 43  19  73  1   
 44  19  74  1   
 45  20  21  1   
 46  20  40  2   
 47  21  22  2   
 48  21  41  1   
 49  22  23  1   
 50  22  30  1   
 51  23  24  ar  
 52  23  28  ar  
 53  24  25  ar  
 54  24  43  1   
 55  25  26  ar  
 56  25  44  1   
 57  26  27  ar  
 58  26  45  1   
 59  27  28  ar  
 60  27  46  1   
 61  28  29  1   
 62  30  31  1   
 63  30  40  1   
 64  31  32  2   
 65  31  33  2   
 66  31  34  1   
 67  34  35  ar  
 68  34  39  ar  
 69  35  36  ar  
 70  35  47  1   
 71  36  37  ar  
 72  36  48  1   
 73  37  38  ar  
 74  37  49  1   
 75  38  39  ar  
 76  39  50  1   
 77  40  42  1   
@<TRIPOS>SUBSTRUCTURE
  1 LIG  40 GROUP 4 **** **** 0
@<TRIPOS>PROPERTY_DATA
index	|	ligand325
Name	|	MAK-UNK-8fd-17
ChemPlp	|	-92.5908
MM-GBSA Nwat=0	|	16.9412
STDEV0	|	7.1465
MM-GBSA Nwat=30	|	67.4369
STDEV30	|	41.125
MM-GBSA Nwat=60	|	48.4556
STDEV60	|	44.9587
ST.DEV < 10%	|	N
RMSD LIG < 2	|	
DIST < 5	|	
DIST < 3.5	|	N

# MOE 2019.01 (io_trps.svl 2018.10)

@<TRIPOS>MOLECULE
ligand390
91 97 1 0 0 
SMALL
USER_CHARGES


@<TRIPOS>ATOM
  1 O1       6.5370    -6.1690    27.2090 O.2   1 LIG   0.0000 
  2 C2       7.2700    -5.3310    26.7610 C.2   1 LIG   0.0000 
  3 C3       8.5390    -4.9540    27.5080 C.3   1 LIG   0.0000 
  4 CL6      9.9270    -5.0310    26.3960 Cl    1 LIG   0.0000 
  5 N7       6.9570    -4.7020    25.5500 N.am  1 LIG   0.0000 
  6 C8       7.8710    -3.6770    25.0190 C.3   1 LIG   0.0000 
  7 C11      7.8850    -3.6640    23.4980 C.3   1 LIG   0.0000 
  8 N14      6.5320    -3.7530    22.9240 N.am  1 LIG   0.0000 
  9 S15      6.7230    -3.8110    21.1760 S.o2  1 LIG   0.0000 
 10 O16      5.5920    -4.4830    20.5910 O.2   1 LIG   0.0000 
 11 O17      7.9290    -4.5260    20.8480 O.2   1 LIG   0.0000 
 12 C18      6.8220    -2.1900    20.5500 C.2   1 LIG   0.0000 
 13 C19      7.9220    -1.3850    20.4830 C.2   1 LIG   0.0000 
 14 C21      7.6450    -0.1180    19.9060 C.2   1 LIG   0.0000 
 15 C23      6.3500     0.0860    19.5250 C.2   1 LIG   0.0000 
 16 C24      5.7740     1.3400    18.8900 C.3   1 LIG   0.0000 
 17 N27      5.3170     2.2610    19.9480 N.4   1 LIG   1.0000 
 18 C28      4.0300     1.8120    20.5000 C.3   1 LIG   0.0000 
 19 C31      3.5440     2.7780    21.5680 C.3   1 LIG   0.0000 
 20 N34      4.5450     2.9100    22.6370 N.am  1 LIG   0.0000 
 21 S35      3.9980     4.0050    23.9010 S.o2  1 LIG   0.0000 
 22 O36      3.8980     5.3400    23.3700 O.2   1 LIG   0.0000 
 23 O37      2.7070     3.5810    24.3780 O.2   1 LIG   0.0000 
 24 C38      5.1370     3.9880    25.2170 C.ar  1 LIG   0.0000 
 25 C39      4.8140     3.2390    26.3430 C.ar  1 LIG   0.0000 
 26 C41      5.6900     3.1920    27.4220 C.ar  1 LIG   0.0000 
 27 C43      6.8940     3.8880    27.3920 C.ar  1 LIG   0.0000 
 28 C45      7.2130     4.6350    26.2630 C.ar  1 LIG   0.0000 
 29 C46      8.4200     5.3260    26.2470 C.ar  1 LIG   0.0000 
 30 C48      8.7620     6.0810    25.1290 C.ar  1 LIG   0.0000 
 31 C49     10.0860     6.8270    25.1330 C.3   1 LIG   0.0000 
 32 C52     11.1940     5.8920    25.5890 C.3   1 LIG   0.0000 
 33 C55     11.4490     4.8480    24.5160 C.2   1 LIG   0.0000 
 34 C56     12.6220     4.6220    23.8580 C.2   1 LIG   0.0000 
 35 C58     12.5920     3.5740    22.9000 C.2   1 LIG   0.0000 
 36 C60     11.3720     2.9760    22.8060 C.2   1 LIG   0.0000 
 37 CL61    10.8780     1.6330    21.7480 Cl    1 LIG   0.0000 
 38 S62     10.3130     3.7360    23.9040 S.3   1 LIG   0.0000 
 39 C63      7.9080     6.1490    24.0330 C.ar  1 LIG   0.0000 
 40 C64      8.2500     6.9640    22.7970 C.3   1 LIG   0.0000 
 41 C67      7.0130     7.7110    22.3230 C.2   1 LIG   0.0000 
 42 C68      6.3950     7.5660    21.0520 C.2   1 LIG   0.0000 
 43 C70      5.2920     8.3340    20.8290 C.2   1 LIG   0.0000 
 44 S72      5.0820     9.2120    22.2760 S.3   1 LIG   0.0000 
 45 C73      6.4040     8.6000    23.1570 C.2   1 LIG   0.0000 
 46 C75      6.7060     5.4500    24.0730 C.ar  1 LIG   0.0000 
 47 C77      6.3410     4.6880    25.1790 C.ar  1 LIG   0.0000 
 48 C78      5.8340     3.3540    22.0850 C.3   1 LIG   0.0000 
 49 C81      6.3170     2.3860    21.0180 C.3   1 LIG   0.0000 
 50 S84      5.5010    -1.3420    19.8980 S.3   1 LIG   0.0000 
 51 C85      5.8900    -5.0110    23.3410 C.3   1 LIG   0.0000 
 52 C88      5.7240    -5.1000    24.8510 C.3   1 LIG   0.0000 
 53 H19      8.8280    -1.6590    20.8060 H     1 LIG   0.0000 
 54 H21      8.3510     0.5790    19.7870 H     1 LIG   0.0000 
 55 H39      3.9510     2.7340    26.3780 H     1 LIG   0.0000 
 56 H41      5.4520     2.6510    28.2290 H     1 LIG   0.0000 
 57 H43      7.5220     3.8510    28.1700 H     1 LIG   0.0000 
 58 H46      9.0380     5.2810    27.0320 H     1 LIG   0.0000 
 59 H75      6.0890     5.4970    23.2880 H     1 LIG   0.0000 
 60 H56     13.4470     5.1580    24.0380 H     1 LIG   0.0000 
 61 H58     13.3840     3.3030    22.3520 H     1 LIG   0.0000 
 62 H68      6.7500     6.9380    20.3600 H     1 LIG   0.0000 
 63 H70      4.7310     8.3730    20.0020 H     1 LIG   0.0000 
 64 H73      6.6750     8.8420    24.0880 H     1 LIG   0.0000 
 65 H31      8.4510    -4.0250    27.8670 H     1 LIG   0.0000 
 66 H32      8.6830    -5.5920    28.2640 H     1 LIG   0.0000 
 67 H81      8.7960    -3.8660    25.3500 H     1 LIG   0.0000 
 68 H82      7.5760    -2.7790    25.3470 H     1 LIG   0.0000 
 69 H111     8.3110    -2.8150    23.1870 H     1 LIG   0.0000 
 70 H112     8.4220    -4.4440    23.1750 H     1 LIG   0.0000 
 71 H241     6.4780     1.7880    18.3390 H     1 LIG   0.0000 
 72 H242     5.0000     1.0930    18.3060 H     1 LIG   0.0000 
 73 H27      5.1830     3.1640    19.5390 H     1 LIG   0.0000 
 74 H281     4.1430     0.9040    20.9040 H     1 LIG   0.0000 
 75 H282     3.3540     1.7670    19.7640 H     1 LIG   0.0000 
 76 H311     3.3840     3.6740    21.1540 H     1 LIG   0.0000 
 77 H312     2.6890     2.4350    21.9580 H     1 LIG   0.0000 
 78 H491    10.0280     7.6050    25.7590 H     1 LIG   0.0000 
 79 H492    10.2860     7.1560    24.2100 H     1 LIG   0.0000 
 80 H521    12.0300     6.4170    25.7480 H     1 LIG   0.0000 
 81 H522    10.9190     5.4380    26.4370 H     1 LIG   0.0000 
 82 H641     8.5680     6.3530    22.0720 H     1 LIG   0.0000 
 83 H642     8.9710     7.6210    23.0190 H     1 LIG   0.0000 
 84 H781     6.5090     3.3980    22.8210 H     1 LIG   0.0000 
 85 H782     5.7230     4.2620    21.6800 H     1 LIG   0.0000 
 86 H811     7.1740     2.7240    20.6290 H     1 LIG   0.0000 
 87 H812     6.4700     1.4880    21.4320 H     1 LIG   0.0000 
 88 H851     6.4540    -5.7770    23.0340 H     1 LIG   0.0000 
 89 H852     4.9880    -5.0680    22.9150 H     1 LIG   0.0000 
 90 H881     4.9800    -4.4950    25.1340 H     1 LIG   0.0000 
 91 H882     5.5000    -6.0430    25.0990 H     1 LIG   0.0000 
@<TRIPOS>BOND
  1   1   2  2   
  2   2   3  1   
  3   2   5  am  
  4   3   4  1   
  5   3  65  1   
  6   3  66  1   
  7   5   6  1   
  8   5  52  1   
  9   6   7  1   
 10   6  67  1   
 11   6  68  1   
 12   7   8  1   
 13   7  69  1   
 14   7  70  1   
 15   8   9  am  
 16   8  51  1   
 17   9  10  2   
 18   9  11  2   
 19   9  12  1   
 20  12  13  2   
 21  12  50  1   
 22  13  14  1   
 23  13  53  1   
 24  14  15  2   
 25  14  54  1   
 26  15  16  1   
 27  15  50  1   
 28  16  17  1   
 29  16  71  1   
 30  16  72  1   
 31  17  18  1   
 32  17  49  1   
 33  17  73  1   
 34  18  19  1   
 35  18  74  1   
 36  18  75  1   
 37  19  20  1   
 38  19  76  1   
 39  19  77  1   
 40  20  21  am  
 41  20  48  1   
 42  21  22  2   
 43  21  23  2   
 44  21  24  1   
 45  24  25  ar  
 46  24  47  ar  
 47  25  26  ar  
 48  25  55  1   
 49  26  27  ar  
 50  26  56  1   
 51  27  28  ar  
 52  27  57  1   
 53  28  29  ar  
 54  28  47  ar  
 55  29  30  ar  
 56  29  58  1   
 57  30  31  1   
 58  30  39  ar  
 59  31  32  1   
 60  31  78  1   
 61  31  79  1   
 62  32  33  1   
 63  32  80  1   
 64  32  81  1   
 65  33  34  2   
 66  33  38  1   
 67  34  35  1   
 68  34  60  1   
 69  35  36  2   
 70  35  61  1   
 71  36  37  1   
 72  36  38  1   
 73  39  40  1   
 74  39  46  ar  
 75  40  41  1   
 76  40  82  1   
 77  40  83  1   
 78  41  42  1   
 79  41  45  2   
 80  42  43  2   
 81  42  62  1   
 82  43  44  1   
 83  43  63  1   
 84  44  45  1   
 85  45  64  1   
 86  46  47  ar  
 87  46  59  1   
 88  48  49  1   
 89  48  84  1   
 90  48  85  1   
 91  49  86  1   
 92  49  87  1   
 93  51  52  1   
 94  51  88  1   
 95  51  89  1   
 96  52  90  1   
 97  52  91  1   
@<TRIPOS>SUBSTRUCTURE
  1 LIG  48 GROUP 4 **** **** 0
@<TRIPOS>PROPERTY_DATA
index	|	ligand390
Name	|	MAK-UNK-e05-2
ChemPlp	|	-114.7
MM-GBSA Nwat=0	|	81.7275
STDEV0	|	6.2665
MM-GBSA Nwat=30	|	71.4633
STDEV30	|	22.8325
MM-GBSA Nwat=60	|	14.1467
STDEV60	|	19.2319
ST.DEV < 10%	|	N
RMSD LIG < 2	|	
DIST < 5	|	
DIST < 3.5	|	N

# MOE 2019.01 (io_trps.svl 2018.10)

@<TRIPOS>MOLECULE
ligand322
74 77 1 0 0 
SMALL
USER_CHARGES


@<TRIPOS>ATOM
  1 C1       4.7330     9.0380    19.7480 C.3   1 LIG   0.0000 
  2 N5       5.1110     7.8590    20.5410 N.4   1 LIG   1.0000 
  3 C8       6.3670     8.1300    21.2550 C.3   1 LIG   0.0000 
  4 C11      6.9940     6.8120    21.7000 C.2   1 LIG   0.0000 
  5 C12      8.1890     6.6970    22.4500 C.2   1 LIG   0.0000 
  6 C14      8.4040     5.3630    22.6310 C.2   1 LIG   0.0000 
  7 C15      9.5280     4.7910    23.3430 C.ar  1 LIG   0.0000 
  8 C16     10.0140     3.5500    22.9430 C.ar  1 LIG   0.0000 
  9 C18     11.0940     2.9950    23.6230 C.ar  1 LIG   0.0000 
 10 C19     11.6320     1.6400    23.1940 C.3   1 LIG   0.0000 
 11 C20     12.8160     1.2640    24.0700 C.3   1 LIG   0.0000 
 12 N24     10.5770     0.6260    23.3350 N.am  1 LIG   0.0000 
 13 C25     10.3040     0.0280    24.6490 C.3   1 LIG   0.0000 
 14 C29      9.8470     0.2400    22.2410 C.2   1 LIG   0.0000 
 15 O30     10.0700     0.7290    21.1680 O.2   1 LIG   0.0000 
 16 C31      8.7560    -0.8080    22.3870 C.3   1 LIG   0.0000 
 17 C33      7.8630    -0.7230    21.1570 C.3   1 LIG   0.0000 
 18 C36      6.7760    -1.7890    21.1580 C.3   1 LIG   0.0000 
 19 N39      7.3070    -3.1160    21.5140 N.am  1 LIG   0.0000 
 20 C40      6.7110    -4.2420    20.9390 C.2   1 LIG   0.0000 
 21 O41      5.7920    -4.1120    20.1780 O.2   1 LIG   0.0000 
 22 C42      7.2270    -5.6310    21.2780 C.3   1 LIG   0.0000 
 23 CL45     6.2770    -6.3050    22.6240 Cl    1 LIG   0.0000 
 24 C46      8.4340    -3.3160    22.4390 C.3   1 LIG   0.0000 
 25 C49      9.4350    -2.1710    22.3750 C.3   1 LIG   0.0000 
 26 C52     11.6860     3.6630    24.6900 C.ar  1 LIG   0.0000 
 27 C54     11.1920     4.9030    25.0820 C.ar  1 LIG   0.0000 
 28 C56     10.1130     5.4670    24.4080 C.ar  1 LIG   0.0000 
 29 F57      9.6410     6.6530    24.7840 F     1 LIG   0.0000 
 30 N58      7.3790     4.6820    22.0320 N.pl3 1 LIG   0.0000 
 31 S59      7.2170     3.0000    22.0040 S.o2  1 LIG   0.0000 
 32 O60      8.2400     2.4330    21.1640 O.2   1 LIG   0.0000 
 33 O61      7.3520     2.4820    23.3410 O.2   1 LIG   0.0000 
 34 C62      5.6500     2.5780    21.3750 C.ar  1 LIG   0.0000 
 35 C63      5.5550     1.7540    20.2600 C.ar  1 LIG   0.0000 
 36 C65      4.3020     1.4170    19.7580 C.ar  1 LIG   0.0000 
 37 C67      3.1670     1.9170    20.3880 C.ar  1 LIG   0.0000 
 38 N69      3.2800     2.7110    21.4630 N.ar  1 LIG   0.0000 
 39 C70      4.4790     3.0460    21.9620 C.ar  1 LIG   0.0000 
 40 C72      6.5040     5.5550    21.4520 C.2   1 LIG   0.0000 
 41 H12      8.7630     7.4470    22.7800 H     1 LIG   0.0000 
 42 H72      5.6720     5.3240    20.9470 H     1 LIG   0.0000 
 43 H16      9.5940     3.0640    22.1770 H     1 LIG   0.0000 
 44 H52     12.4610     3.2540    25.1720 H     1 LIG   0.0000 
 45 H54     11.6130     5.3890    25.8480 H     1 LIG   0.0000 
 46 H63      6.3830     1.4050    19.8200 H     1 LIG   0.0000 
 47 H65      4.2190     0.8250    18.9560 H     1 LIG   0.0000 
 48 H67      2.2610     1.6820    20.0370 H     1 LIG   0.0000 
 49 H70      4.5320     3.6400    22.7650 H     1 LIG   0.0000 
 50 H11      3.8790     8.8530    19.2630 H     1 LIG   0.0000 
 51 H12      4.6090     9.8220    20.3560 H     1 LIG   0.0000 
 52 H13      5.4560     9.2400    19.0870 H     1 LIG   0.0000 
 53 H51      4.3890     7.6570    21.2030 H     1 LIG   0.0000 
 54 H52      5.2350     7.0740    19.9340 H     1 LIG   0.0000 
 55 H81      6.1790     8.6970    22.0570 H     1 LIG   0.0000 
 56 H82      6.9990     8.6110    20.6470 H     1 LIG   0.0000 
 57 H19     11.9250     1.6850    22.2380 H     1 LIG   0.0000 
 58 H201    13.5340     1.9540    23.9740 H     1 LIG   0.0000 
 59 H202    12.5220     1.2190    25.0250 H     1 LIG   0.0000 
 60 H203    13.1700     0.3730    23.7870 H     1 LIG   0.0000 
 61 H251    10.9220     0.4210    25.3290 H     1 LIG   0.0000 
 62 H252     9.3570     0.2160    24.9110 H     1 LIG   0.0000 
 63 H253    10.4460    -0.9610    24.6010 H     1 LIG   0.0000 
 64 H31      8.2310    -0.6720    23.2270 H     1 LIG   0.0000 
 65 H331     8.4280    -0.8400    20.3410 H     1 LIG   0.0000 
 66 H332     7.4290     0.1780    21.1370 H     1 LIG   0.0000 
 67 H361     6.0740    -1.5340    21.8230 H     1 LIG   0.0000 
 68 H362     6.3700    -1.8380    20.2460 H     1 LIG   0.0000 
 69 H421     7.1390    -6.2240    20.4780 H     1 LIG   0.0000 
 70 H422     8.1890    -5.5730    21.5460 H     1 LIG   0.0000 
 71 H461     8.9020    -4.1670    22.1990 H     1 LIG   0.0000 
 72 H462     8.0790    -3.3830    23.3710 H     1 LIG   0.0000 
 73 H491    10.0450    -2.2330    23.1650 H     1 LIG   0.0000 
 74 H492     9.9690    -2.2560    21.5340 H     1 LIG   0.0000 
@<TRIPOS>BOND
  1   1   2  1   
  2   1  50  1   
  3   1  51  1   
  4   1  52  1   
  5   2   3  1   
  6   2  53  1   
  7   2  54  1   
  8   3   4  1   
  9   3  55  1   
 10   3  56  1   
 11   4   5  1   
 12   4  40  2   
 13   5   6  2   
 14   5  41  1   
 15   6   7  1   
 16   6  30  1   
 17   7   8  ar  
 18   7  28  ar  
 19   8   9  ar  
 20   8  43  1   
 21   9  10  1   
 22   9  26  ar  
 23  10  11  1   
 24  10  12  1   
 25  10  57  1   
 26  11  58  1   
 27  11  59  1   
 28  11  60  1   
 29  12  13  1   
 30  12  14  am  
 31  13  61  1   
 32  13  62  1   
 33  13  63  1   
 34  14  15  2   
 35  14  16  1   
 36  16  17  1   
 37  16  25  1   
 38  16  64  1   
 39  17  18  1   
 40  17  65  1   
 41  17  66  1   
 42  18  19  1   
 43  18  67  1   
 44  18  68  1   
 45  19  20  am  
 46  19  24  1   
 47  20  21  2   
 48  20  22  1   
 49  22  23  1   
 50  22  69  1   
 51  22  70  1   
 52  24  25  1   
 53  24  71  1   
 54  24  72  1   
 55  25  73  1   
 56  25  74  1   
 57  26  27  ar  
 58  26  44  1   
 59  27  28  ar  
 60  27  45  1   
 61  28  29  1   
 62  30  31  1   
 63  30  40  1   
 64  31  32  2   
 65  31  33  2   
 66  31  34  1   
 67  34  35  ar  
 68  34  39  ar  
 69  35  36  ar  
 70  35  46  1   
 71  36  37  ar  
 72  36  47  1   
 73  37  38  ar  
 74  37  48  1   
 75  38  39  ar  
 76  39  49  1   
 77  40  42  1   
@<TRIPOS>SUBSTRUCTURE
  1 LIG  32 GROUP 4 **** **** 0
@<TRIPOS>PROPERTY_DATA
index	|	ligand322
Name	|	MAK-UNK-8fd-14
ChemPlp	|	-103.56
MM-GBSA Nwat=0	|	23.694
STDEV0	|	8.0298
MM-GBSA Nwat=30	|	73.968
STDEV30	|	12.9388
MM-GBSA Nwat=60	|	42.7536
STDEV60	|	13.4732
ST.DEV < 10%	|	N
RMSD LIG < 2	|	
DIST < 5	|	
DIST < 3.5	|	N

# MOE 2019.01 (io_trps.svl 2018.10)

@<TRIPOS>MOLECULE
ligand310
71 76 1 0 0 
SMALL
NO_CHARGES


@<TRIPOS>ATOM
  1 O1      11.1060     1.0370    21.9680 O.2   1 LIG   0.0000 
  2 C2      11.2520     1.7270    22.9390 C.2   1 LIG   0.0000 
  3 C3      12.5730     1.7140    23.6900 C.3   1 LIG   0.0000 
  4 CL6     13.5560     0.3370    23.1370 Cl    1 LIG   0.0000 
  5 N7      10.2000     2.5470    23.3820 N.am  1 LIG   0.0000 
  6 C8      10.2650     3.3910    24.5770 C.3   1 LIG   0.0000 
  7 C11     10.2860     4.8660    24.1990 C.3   1 LIG   0.0000 
  8 C12     11.5450     5.2330    23.4300 C.ar  1 LIG   0.0000 
  9 C13     12.3990     6.2090    23.9330 C.ar  1 LIG   0.0000 
 10 C15     13.5500     6.5420    23.2250 C.ar  1 LIG   0.0000 
 11 C17     13.8390     5.9010    22.0260 C.ar  1 LIG   0.0000 
 12 C19     12.9780     4.9280    21.5330 C.ar  1 LIG   0.0000 
 13 C21     11.8250     4.5860    22.2300 C.ar  1 LIG   0.0000 
 14 C23      9.0160     5.1020    23.4010 C.ar  1 LIG   0.0000 
 15 C24      8.5430     6.4110    23.3870 C.ar  1 LIG   0.0000 
 16 C26      7.3860     6.7150    22.6780 C.ar  1 LIG   0.0000 
 17 C28      6.7150     5.7100    21.9890 C.ar  1 LIG   0.0000 
 18 C30      7.2050     4.4080    22.0160 C.ar  1 LIG   0.0000 
 19 C32      8.3610     4.0730    22.7170 C.ar  1 LIG   0.0000 
 20 C33      8.8840     2.6370    22.7340 C.3   1 LIG   0.0000 
 21 N34      8.9140     2.1420    21.3500 N.3   1 LIG   0.0000 
 22 C37      7.6230     1.5210    21.0230 C.3   1 LIG   0.0000 
 23 C40      7.6440     0.0540    21.4420 C.2   1 LIG   0.0000 
 24 C41      8.4620    -0.4830    22.4640 C.2   1 LIG   0.0000 
 25 C43      8.1850    -1.8170    22.5190 C.2   1 LIG   0.0000 
 26 C44      8.8090    -2.7610    23.4260 C.ar  1 LIG   0.0000 
 27 C45      8.0770    -3.8330    23.9250 C.ar  1 LIG   0.0000 
 28 C47      8.6750    -4.7390    24.7950 C.ar  1 LIG   0.0000 
 29 C49     10.0050    -4.5710    25.1670 C.ar  1 LIG   0.0000 
 30 C51     10.7370    -3.4990    24.6680 C.ar  1 LIG   0.0000 
 31 C53     10.1390    -2.5940    23.7980 C.ar  1 LIG   0.0000 
 32 F54     10.8400    -1.5680    23.3210 F     1 LIG   0.0000 
 33 N55      7.2270    -2.0910    21.5820 N.pl3 1 LIG   0.0000 
 34 S56      6.5630    -3.6180    21.2880 S.o2  1 LIG   0.0000 
 35 O57      5.8940    -3.6140    20.0130 O.2   1 LIG   0.0000 
 36 O58      7.6140    -4.6040    21.2760 O.2   1 LIG   0.0000 
 37 C59      5.4200    -4.0050    22.5420 C.ar  1 LIG   0.0000 
 38 C60      5.0340    -5.3260    22.7390 C.ar  1 LIG   0.0000 
 39 C62      4.1200    -5.6340    23.7410 C.ar  1 LIG   0.0000 
 40 C64      3.6120    -4.6050    24.5280 C.ar  1 LIG   0.0000 
 41 N66      3.9970    -3.3370    24.3240 N.ar  1 LIG   0.0000 
 42 C67      4.8770    -3.0210    23.3620 C.ar  1 LIG   0.0000 
 43 C69      6.8830    -0.9540    20.9070 C.2   1 LIG   0.0000 
 44 H13     12.1880     6.6670    24.7960 H     1 LIG   0.0000 
 45 H15     14.1690     7.2430    23.5800 H     1 LIG   0.0000 
 46 H17     14.6660     6.1400    21.5170 H     1 LIG   0.0000 
 47 H19     13.1900     4.4700    20.6700 H     1 LIG   0.0000 
 48 H21     11.2060     3.8850    21.8750 H     1 LIG   0.0000 
 49 H24      9.0310     7.1280    23.8850 H     1 LIG   0.0000 
 50 H26      7.0390     7.6530    22.6630 H     1 LIG   0.0000 
 51 H28      5.8830     5.9230    21.4770 H     1 LIG   0.0000 
 52 H30      6.7130     3.6930    21.5190 H     1 LIG   0.0000 
 53 H41      9.1150     0.0160    23.0340 H     1 LIG   0.0000 
 54 H69      6.2120    -0.8730    20.1710 H     1 LIG   0.0000 
 55 H45      7.1200    -3.9530    23.6590 H     1 LIG   0.0000 
 56 H47      8.1490    -5.5100    25.1530 H     1 LIG   0.0000 
 57 H49     10.4350    -5.2220    25.7930 H     1 LIG   0.0000 
 58 H51     11.6940    -3.3790    24.9350 H     1 LIG   0.0000 
 59 H60      5.4100    -6.0510    22.1620 H     1 LIG   0.0000 
 60 H62      3.8330    -6.5800    23.8940 H     1 LIG   0.0000 
 61 H64      2.9540    -4.8130    25.2530 H     1 LIG   0.0000 
 62 H67      5.1460    -2.0660    23.2320 H     1 LIG   0.0000 
 63 H31     13.0650     2.5670    23.5130 H     1 LIG   0.0000 
 64 H32     12.3990     1.6270    24.6700 H     1 LIG   0.0000 
 65 H81     11.0960     3.1720    25.0880 H     1 LIG   0.0000 
 66 H82      9.4650     3.2100    25.1490 H     1 LIG   0.0000 
 67 H11     10.2480     5.4130    25.0350 H     1 LIG   0.0000 
 68 H33      8.2410     2.0750    23.2540 H     1 LIG   0.0000 
 69 H371     7.4620     1.5840    20.0380 H     1 LIG   0.0000 
 70 H372     6.8910     1.9970    21.5120 H     1 LIG   0.0000 
 71 H34      9.6440     1.4650    21.2530 H     1 LIG   0.0000 
@<TRIPOS>BOND
  1   1   2  2   
  2   2   3  1   
  3   2   5  am  
  4   3   4  1   
  5   3  63  1   
  6   3  64  1   
  7   5   6  1   
  8   5  20  1   
  9   6   7  1   
 10   6  65  1   
 11   6  66  1   
 12   7   8  1   
 13   7  14  1   
 14   7  67  1   
 15   8   9  ar  
 16   8  13  ar  
 17   9  10  ar  
 18   9  44  1   
 19  10  11  ar  
 20  10  45  1   
 21  11  12  ar  
 22  11  46  1   
 23  12  13  ar  
 24  12  47  1   
 25  13  48  1   
 26  14  15  ar  
 27  14  19  ar  
 28  15  16  ar  
 29  15  49  1   
 30  16  17  ar  
 31  16  50  1   
 32  17  18  ar  
 33  17  51  1   
 34  18  19  ar  
 35  18  52  1   
 36  19  20  1   
 37  20  21  1   
 38  20  68  1   
 39  21  22  1   
 40  21  71  1   
 41  22  23  1   
 42  22  69  1   
 43  22  70  1   
 44  23  24  1   
 45  23  43  2   
 46  24  25  2   
 47  24  53  1   
 48  25  26  1   
 49  25  33  1   
 50  26  27  ar  
 51  26  31  ar  
 52  27  28  ar  
 53  27  55  1   
 54  28  29  ar  
 55  28  56  1   
 56  29  30  ar  
 57  29  57  1   
 58  30  31  ar  
 59  30  58  1   
 60  31  32  1   
 61  33  34  1   
 62  33  43  1   
 63  34  35  2   
 64  34  36  2   
 65  34  37  1   
 66  37  38  ar  
 67  37  42  ar  
 68  38  39  ar  
 69  38  59  1   
 70  39  40  ar  
 71  39  60  1   
 72  40  41  ar  
 73  40  61  1   
 74  41  42  ar  
 75  42  62  1   
 76  43  54  1   
@<TRIPOS>SUBSTRUCTURE
  1 LIG  24 GROUP 4 **** **** 0
@<TRIPOS>PROPERTY_DATA
index	|	ligand310
Name	|	MAK-UNK-702-5
ChemPlp	|	-103.009
MM-GBSA Nwat=0	|	63.715
STDEV0	|	8.0968
MM-GBSA Nwat=30	|	74.4609
STDEV30	|	10.3109
MM-GBSA Nwat=60	|	67.4885
STDEV60	|	9.5518
ST.DEV < 10%	|	N
RMSD LIG < 2	|	
DIST < 5	|	
DIST < 3.5	|	N

# MOE 2019.01 (io_trps.svl 2018.10)

@<TRIPOS>MOLECULE
ligand319
77 80 1 0 0 
SMALL
USER_CHARGES


@<TRIPOS>ATOM
  1 C1      13.6000     8.2260    28.2150 C.3   1 LIG   0.0000 
  2 N5      13.0370     7.0380    28.8720 N.4   1 LIG   1.0000 
  3 C8      11.5920     6.9720    28.6110 C.3   1 LIG   0.0000 
  4 C11     11.3550     6.6330    27.1420 C.2   1 LIG   0.0000 
  5 C12     12.3760     6.3710    26.1980 C.2   1 LIG   0.0000 
  6 C14     11.7510     6.1210    25.0120 C.2   1 LIG   0.0000 
  7 C15     12.4220     5.8110    23.7670 C.ar  1 LIG   0.0000 
  8 C16     13.2400     6.7800    23.1950 C.ar  1 LIG   0.0000 
  9 C18     13.9000     6.5150    21.9990 C.ar  1 LIG   0.0000 
 10 C20     13.7400     5.2820    21.3740 C.ar  1 LIG   0.0000 
 11 C22     12.9220     4.3140    21.9460 C.ar  1 LIG   0.0000 
 12 C24     12.2630     4.5780    23.1430 C.ar  1 LIG   0.0000 
 13 C25     11.3780     3.4950    23.7380 C.3   1 LIG   0.0000 
 14 C28     11.8100     2.1380    23.2050 C.3   1 LIG   0.0000 
 15 C29     12.9900     1.6280    24.0160 C.3   1 LIG   0.0000 
 16 N33     10.6920     1.1900    23.3160 N.am  1 LIG   0.0000 
 17 C34     10.4080     0.5350    24.6010 C.3   1 LIG   0.0000 
 18 C38      9.9150     0.9160    22.2220 C.2   1 LIG   0.0000 
 19 O39     10.1470     1.4510    21.1720 O.2   1 LIG   0.0000 
 20 C40      8.7590    -0.0650    22.3360 C.3   1 LIG   0.0000 
 21 C42      7.9400     0.0320    21.0560 C.3   1 LIG   0.0000 
 22 C45      6.7960    -0.9720    21.0270 C.3   1 LIG   0.0000 
 23 N48      7.2300    -2.3140    21.4490 N.am  1 LIG   0.0000 
 24 C49      6.6030    -3.4230    20.8740 C.2   1 LIG   0.0000 
 25 O50      5.7360    -3.2670    20.0600 O.2   1 LIG   0.0000 
 26 C51      7.0190    -4.8270    21.2810 C.3   1 LIG   0.0000 
 27 CL54     5.6080    -5.7020    21.9220 Cl    1 LIG   0.0000 
 28 C55      8.2920    -2.5480    22.4410 C.3   1 LIG   0.0000 
 29 C58      9.3590    -1.4620    22.4010 C.3   1 LIG   0.0000 
 30 N61     10.4010     6.2100    25.2170 N.pl3 1 LIG   0.0000 
 31 S62      9.2210     5.9710    24.0300 S.o2  1 LIG   0.0000 
 32 O63      9.8540     5.8420    22.7430 O.2   1 LIG   0.0000 
 33 O64      8.4810     4.7710    24.3230 O.2   1 LIG   0.0000 
 34 C65      8.1360     7.3310    24.0080 C.ar  1 LIG   0.0000 
 35 C66      7.2570     7.4940    22.9430 C.ar  1 LIG   0.0000 
 36 C68      6.3900     8.5820    22.9270 C.ar  1 LIG   0.0000 
 37 C70      6.4230     9.4850    23.9840 C.ar  1 LIG   0.0000 
 38 N72      7.2780     9.3110    25.0030 N.ar  1 LIG   0.0000 
 39 C73      8.1210     8.2680    25.0360 C.ar  1 LIG   0.0000 
 40 C75     10.1380     6.5270    26.5190 C.2   1 LIG   0.0000 
 41 H12     13.3620     6.3700    26.3660 H     1 LIG   0.0000 
 42 H75      9.2370     6.6570    26.9350 H     1 LIG   0.0000 
 43 H16     13.3540     7.6660    23.6440 H     1 LIG   0.0000 
 44 H18     14.4890     7.2110    21.5880 H     1 LIG   0.0000 
 45 H20     14.2130     5.0930    20.5140 H     1 LIG   0.0000 
 46 H22     12.8070     3.4280    21.4980 H     1 LIG   0.0000 
 47 H66      7.2490     6.8340    22.1920 H     1 LIG   0.0000 
 48 H68      5.7530     8.7120    22.1670 H     1 LIG   0.0000 
 49 H70      5.8050    10.2710    23.9840 H     1 LIG   0.0000 
 50 H73      8.7470     8.1640    25.8090 H     1 LIG   0.0000 
 51 H11     14.5830     8.2710    28.3920 H     1 LIG   0.0000 
 52 H12     13.4410     8.1680    27.2290 H     1 LIG   0.0000 
 53 H13     13.1580     9.0470    28.5760 H     1 LIG   0.0000 
 54 H51     13.4780     6.2160    28.5110 H     1 LIG   0.0000 
 55 H52     13.1950     7.0950    29.8570 H     1 LIG   0.0000 
 56 H81     11.1740     7.8560    28.8200 H     1 LIG   0.0000 
 57 H82     11.1810     6.2640    29.1860 H     1 LIG   0.0000 
 58 H251    10.4260     3.6650    23.4830 H     1 LIG   0.0000 
 59 H252    11.4630     3.5040    24.7340 H     1 LIG   0.0000 
 60 H28     12.0780     2.2270    22.2460 H     1 LIG   0.0000 
 61 H291    13.7500     2.2730    23.9410 H     1 LIG   0.0000 
 62 H292    12.7220     1.5390    24.9760 H     1 LIG   0.0000 
 63 H293    13.2740     0.7350    23.6660 H     1 LIG   0.0000 
 64 H341    11.0660     0.8470    25.2860 H     1 LIG   0.0000 
 65 H342     9.4820     0.7700    24.8980 H     1 LIG   0.0000 
 66 H343    10.4830    -0.4560    24.4940 H     1 LIG   0.0000 
 67 H40      8.1980     0.1280    23.1410 H     1 LIG   0.0000 
 68 H421     8.5410    -0.1420    20.2760 H     1 LIG   0.0000 
 69 H422     7.5610     0.9540    20.9860 H     1 LIG   0.0000 
 70 H451     6.0740    -0.6580    21.6430 H     1 LIG   0.0000 
 71 H452     6.4380    -1.0270    20.0950 H     1 LIG   0.0000 
 72 H511     7.3780    -5.3120    20.4840 H     1 LIG   0.0000 
 73 H512     7.7270    -4.7740    21.9850 H     1 LIG   0.0000 
 74 H551     8.7220    -3.4300    22.2520 H     1 LIG   0.0000 
 75 H552     7.8830    -2.5650    23.3540 H     1 LIG   0.0000 
 76 H581     9.9200    -1.5330    23.2250 H     1 LIG   0.0000 
 77 H582     9.9320    -1.6040    21.5940 H     1 LIG   0.0000 
@<TRIPOS>BOND
  1   1   2  1   
  2   1  51  1   
  3   1  52  1   
  4   1  53  1   
  5   2   3  1   
  6   2  54  1   
  7   2  55  1   
  8   3   4  1   
  9   3  56  1   
 10   3  57  1   
 11   4   5  1   
 12   4  40  2   
 13   5   6  2   
 14   5  41  1   
 15   6   7  1   
 16   6  30  1   
 17   7   8  ar  
 18   7  12  ar  
 19   8   9  ar  
 20   8  43  1   
 21   9  10  ar  
 22   9  44  1   
 23  10  11  ar  
 24  10  45  1   
 25  11  12  ar  
 26  11  46  1   
 27  12  13  1   
 28  13  14  1   
 29  13  58  1   
 30  13  59  1   
 31  14  15  1   
 32  14  16  1   
 33  14  60  1   
 34  15  61  1   
 35  15  62  1   
 36  15  63  1   
 37  16  17  1   
 38  16  18  am  
 39  17  64  1   
 40  17  65  1   
 41  17  66  1   
 42  18  19  2   
 43  18  20  1   
 44  20  21  1   
 45  20  29  1   
 46  20  67  1   
 47  21  22  1   
 48  21  68  1   
 49  21  69  1   
 50  22  23  1   
 51  22  70  1   
 52  22  71  1   
 53  23  24  am  
 54  23  28  1   
 55  24  25  2   
 56  24  26  1   
 57  26  27  1   
 58  26  72  1   
 59  26  73  1   
 60  28  29  1   
 61  28  74  1   
 62  28  75  1   
 63  29  76  1   
 64  29  77  1   
 65  30  31  1   
 66  30  40  1   
 67  31  32  2   
 68  31  33  2   
 69  31  34  1   
 70  34  35  ar  
 71  34  39  ar  
 72  35  36  ar  
 73  35  47  1   
 74  36  37  ar  
 75  36  48  1   
 76  37  38  ar  
 77  37  49  1   
 78  38  39  ar  
 79  39  50  1   
 80  40  42  1   
@<TRIPOS>SUBSTRUCTURE
  1 LIG  13 GROUP 4 **** **** 0
@<TRIPOS>PROPERTY_DATA
index	|	ligand319
Name	|	MAK-UNK-8fd-11
ChemPlp	|	-97.5944
MM-GBSA Nwat=0	|	19.9501
STDEV0	|	4.323
MM-GBSA Nwat=30	|	78.7242
STDEV30	|	11.3045
MM-GBSA Nwat=60	|	42.9701
STDEV60	|	10.817
ST.DEV < 10%	|	N
RMSD LIG < 2	|	
DIST < 5	|	
DIST < 3.5	|	N

# MOE 2019.01 (io_trps.svl 2018.10)

@<TRIPOS>MOLECULE
ligand339
74 77 1 0 0 
SMALL
USER_CHARGES


@<TRIPOS>ATOM
  1 C1      13.9830    -1.3220    20.6720 C.3   1 LIG   0.0000 
  2 N5      13.0740    -1.7500    21.7450 N.4   1 LIG   1.0000 
  3 C8      12.0820    -0.6950    21.9970 C.3   1 LIG   0.0000 
  4 C9      10.8880    -1.2860    22.7400 C.2   1 LIG   0.0000 
  5 C10     10.9780    -2.1630    23.8470 C.2   1 LIG   0.0000 
  6 C12      9.6970    -2.4610    24.2080 C.2   1 LIG   0.0000 
  7 C13      9.3220    -3.3390    25.3000 C.ar  1 LIG   0.0000 
  8 C14      9.7580    -4.6600    25.3100 C.ar  1 LIG   0.0000 
  9 C16      9.4000    -5.5020    26.3580 C.ar  1 LIG   0.0000 
 10 C18      8.6040    -5.0240    27.3940 C.ar  1 LIG   0.0000 
 11 C20      8.1670    -3.7030    27.3830 C.ar  1 LIG   0.0000 
 12 C22      8.5260    -2.8610    26.3360 C.ar  1 LIG   0.0000 
 13 F23      8.1090    -1.5980    26.3260 F     1 LIG   0.0000 
 14 N24      8.8520    -1.7870    23.3700 N.pl3 1 LIG   0.0000 
 15 S25      7.1630    -1.8450    23.4420 S.o2  1 LIG   0.0000 
 16 O26      6.7550    -2.9760    24.2340 O.2   1 LIG   0.0000 
 17 O27      6.6670    -0.6340    24.0430 O.2   1 LIG   0.0000 
 18 C28      6.5190    -2.0010    21.8330 C.ar  1 LIG   0.0000 
 19 C29      6.3280    -0.8640    21.0550 C.ar  1 LIG   0.0000 
 20 C31      5.8140    -0.9900    19.7680 C.ar  1 LIG   0.0000 
 21 C33      5.5010    -2.2580    19.2890 C.ar  1 LIG   0.0000 
 22 N35      5.6920    -3.3420    20.0550 N.ar  1 LIG   0.0000 
 23 C36      6.1880    -3.2410    21.2980 C.ar  1 LIG   0.0000 
 24 C38      9.5640    -1.0620    22.4580 C.2   1 LIG   0.0000 
 25 C40     12.7120     0.4010    22.8410 C.3   1 LIG   0.0000 
 26 C41     13.4720    -0.2250    23.9990 C.3   1 LIG   0.0000 
 27 N45     11.6580     1.2820    23.3650 N.am  1 LIG   0.0000 
 28 C46     11.5590     1.5290    24.8110 C.3   1 LIG   0.0000 
 29 C50     10.7690     1.8730    22.5060 C.2   1 LIG   0.0000 
 30 O51     10.8500     1.6710    21.3260 O.2   1 LIG   0.0000 
 31 C52      9.6800     2.7840    23.0490 C.3   1 LIG   0.0000 
 32 C54     10.3260     4.1110    23.4200 C.3   1 LIG   0.0000 
 33 C57      9.3070     5.1340    23.9020 C.3   1 LIG   0.0000 
 34 N60      8.1230     5.1840    23.0300 N.am  1 LIG   0.0000 
 35 C61      7.4660     6.4080    22.8750 C.2   1 LIG   0.0000 
 36 O62      7.8720     7.3830    23.4460 O.2   1 LIG   0.0000 
 37 C63      6.2390     6.5050    21.9840 C.3   1 LIG   0.0000 
 38 CL66     6.2720     8.0460    21.0940 Cl    1 LIG   0.0000 
 39 C67      7.5970     4.0130    22.3090 C.3   1 LIG   0.0000 
 40 C70      8.7020     3.0450    21.9110 C.3   1 LIG   0.0000 
 41 H10     11.8150    -2.4980    24.2790 H     1 LIG   0.0000 
 42 H38      9.1950    -0.4830    21.7310 H     1 LIG   0.0000 
 43 H14     10.3300    -5.0040    24.5650 H     1 LIG   0.0000 
 44 H16      9.7140    -6.4510    26.3660 H     1 LIG   0.0000 
 45 H18      8.3450    -5.6290    28.1460 H     1 LIG   0.0000 
 46 H20      7.5960    -3.3590    28.1280 H     1 LIG   0.0000 
 47 H29      6.5590     0.0380    21.4180 H     1 LIG   0.0000 
 48 H31      5.6710    -0.1810    19.1980 H     1 LIG   0.0000 
 49 H33      5.1300    -2.3620    18.3660 H     1 LIG   0.0000 
 50 H36      6.3200    -4.0670    21.8460 H     1 LIG   0.0000 
 51 H11     14.6580    -2.0400    20.5000 H     1 LIG   0.0000 
 52 H12     13.4580    -1.1520    19.8380 H     1 LIG   0.0000 
 53 H13     14.4520    -0.4830    20.9470 H     1 LIG   0.0000 
 54 H51     12.6050    -2.5900    21.4690 H     1 LIG   0.0000 
 55 H52     13.5990    -1.9200    22.5780 H     1 LIG   0.0000 
 56 H8      11.7760    -0.3110    21.1260 H     1 LIG   0.0000 
 57 H40     13.3430     0.9350    22.2780 H     1 LIG   0.0000 
 58 H411    14.1890    -0.8240    23.6420 H     1 LIG   0.0000 
 59 H412    13.8860     0.4960    24.5540 H     1 LIG   0.0000 
 60 H413    12.8410    -0.7580    24.5620 H     1 LIG   0.0000 
 61 H461    12.2800     1.0240    25.2860 H     1 LIG   0.0000 
 62 H462    11.6640     2.5070    24.9900 H     1 LIG   0.0000 
 63 H463    10.6660     1.2240    25.1400 H     1 LIG   0.0000 
 64 H52      9.2200     2.3720    23.8350 H     1 LIG   0.0000 
 65 H541    10.7950     4.4770    22.6160 H     1 LIG   0.0000 
 66 H542    10.9920     3.9510    24.1500 H     1 LIG   0.0000 
 67 H571     9.0170     4.8910    24.8270 H     1 LIG   0.0000 
 68 H572     9.7380     6.0370    23.9140 H     1 LIG   0.0000 
 69 H631     6.2380     5.7450    21.3340 H     1 LIG   0.0000 
 70 H632     5.4140     6.4640    22.5470 H     1 LIG   0.0000 
 71 H671     7.1290     4.3260    21.4830 H     1 LIG   0.0000 
 72 H672     6.9470     3.5360    22.9000 H     1 LIG   0.0000 
 73 H701     8.2870     2.1770    21.6390 H     1 LIG   0.0000 
 74 H702     9.2050     3.4310    21.1380 H     1 LIG   0.0000 
@<TRIPOS>BOND
  1   1   2  1   
  2   1  51  1   
  3   1  52  1   
  4   1  53  1   
  5   2   3  1   
  6   2  54  1   
  7   2  55  1   
  8   3   4  1   
  9   3  25  1   
 10   3  56  1   
 11   4   5  1   
 12   4  24  2   
 13   5   6  2   
 14   5  41  1   
 15   6   7  1   
 16   6  14  1   
 17   7   8  ar  
 18   7  12  ar  
 19   8   9  ar  
 20   8  43  1   
 21   9  10  ar  
 22   9  44  1   
 23  10  11  ar  
 24  10  45  1   
 25  11  12  ar  
 26  11  46  1   
 27  12  13  1   
 28  14  15  1   
 29  14  24  1   
 30  15  16  2   
 31  15  17  2   
 32  15  18  1   
 33  18  19  ar  
 34  18  23  ar  
 35  19  20  ar  
 36  19  47  1   
 37  20  21  ar  
 38  20  48  1   
 39  21  22  ar  
 40  21  49  1   
 41  22  23  ar  
 42  23  50  1   
 43  24  42  1   
 44  25  26  1   
 45  25  27  1   
 46  25  57  1   
 47  26  58  1   
 48  26  59  1   
 49  26  60  1   
 50  27  28  1   
 51  27  29  am  
 52  28  61  1   
 53  28  62  1   
 54  28  63  1   
 55  29  30  2   
 56  29  31  1   
 57  31  32  1   
 58  31  40  1   
 59  31  64  1   
 60  32  33  1   
 61  32  65  1   
 62  32  66  1   
 63  33  34  1   
 64  33  67  1   
 65  33  68  1   
 66  34  35  am  
 67  34  39  1   
 68  35  36  2   
 69  35  37  1   
 70  37  38  1   
 71  37  69  1   
 72  37  70  1   
 73  39  40  1   
 74  39  71  1   
 75  39  72  1   
 76  40  73  1   
 77  40  74  1   
@<TRIPOS>SUBSTRUCTURE
  1 LIG  24 GROUP 4 **** **** 0
@<TRIPOS>PROPERTY_DATA
index	|	ligand339
Name	|	MAK-UNK-8fd-3
ChemPlp	|	-98.6291
MM-GBSA Nwat=0	|	26.5893
STDEV0	|	5.6452
MM-GBSA Nwat=30	|	80.0354
STDEV30	|	11.6367
MM-GBSA Nwat=60	|	59.6164
STDEV60	|	12.5493
ST.DEV < 10%	|	N
RMSD LIG < 2	|	
DIST < 5	|	
DIST < 3.5	|	N

# MOE 2019.01 (io_trps.svl 2018.10)

@<TRIPOS>MOLECULE
ligand394
113 120 1 0 0 
SMALL
USER_CHARGES


@<TRIPOS>ATOM
  1 O1       2.9080    -3.6590    34.6760 O.2   1 LIG   0.0000 
  2 C2       3.9580    -4.2380    34.6460 C.2   1 LIG   0.0000 
  3 C3       4.9560    -4.0610    35.7790 C.3   1 LIG   0.0000 
  4 CL6      5.1950    -2.3250    36.0930 Cl    1 LIG   0.0000 
  5 N7       4.2650    -5.0760    33.5680 N.am  1 LIG   0.0000 
  6 C8       3.2840    -5.2330    32.4820 C.3   1 LIG   0.0000 
  7 C11      3.9590    -5.4560    31.1370 C.3   1 LIG   0.0000 
  8 N14      5.0650    -6.4250    31.2200 N.am  1 LIG   0.0000 
  9 S15      5.7880    -6.5100    29.6170 S.o2  1 LIG   0.0000 
 10 O16      5.8650    -7.8850    29.1970 O.2   1 LIG   0.0000 
 11 O17      7.1120    -5.9450    29.6580 O.2   1 LIG   0.0000 
 12 C18      4.8100    -5.6140    28.4920 C.2   1 LIG   0.0000 
 13 C19      3.7390    -6.0620    27.7740 C.2   1 LIG   0.0000 
 14 C21      3.1680    -5.0570    26.9500 C.2   1 LIG   0.0000 
 15 C23      3.7730    -3.8350    27.0050 C.2   1 LIG   0.0000 
 16 C24      3.3800    -2.5880    26.2320 C.3   1 LIG   0.0000 
 17 N27      4.0360    -2.6010    24.9100 N.4   1 LIG   1.0000 
 18 C28      5.4840    -2.3900    25.0520 C.3   1 LIG   0.0000 
 19 C31      6.1550    -2.3740    23.6880 C.3   1 LIG   0.0000 
 20 N34      5.8850    -3.6260    22.9660 N.am  1 LIG   0.0000 
 21 S35      6.6710    -3.6440    21.3900 S.o2  1 LIG   0.0000 
 22 O36      7.9960    -4.1940    21.5210 O.2   1 LIG   0.0000 
 23 O37      5.9040    -4.4540    20.4800 O.2   1 LIG   0.0000 
 24 C38      6.7750    -2.0200    20.7740 C.ar  1 LIG   0.0000 
 25 C39      5.7240    -1.5640    19.9840 C.ar  1 LIG   0.0000 
 26 C41      5.7680    -0.2710    19.4720 C.ar  1 LIG   0.0000 
 27 C43      6.8420     0.5720    19.7370 C.ar  1 LIG   0.0000 
 28 C45      7.8890     0.1080    20.5280 C.ar  1 LIG   0.0000 
 29 C46      8.9570     0.9610    20.7860 C.ar  1 LIG   0.0000 
 30 C48     10.0100     0.5100    21.5760 C.ar  1 LIG   0.0000 
 31 C49     11.1770     1.4430    21.8570 C.3   1 LIG   0.0000 
 32 N52     10.6730     2.6990    22.4420 N.4   1 LIG   1.0000 
 33 C53      9.7460     2.4150    23.5480 C.3   1 LIG   0.0000 
 34 C56      9.2020     3.7100    24.1310 C.3   1 LIG   0.0000 
 35 N59     10.3030     4.5700    24.5900 N.am  1 LIG   0.0000 
 36 S60      9.7000     6.0690    25.2930 S.o2  1 LIG   0.0000 
 37 O61      8.6730     6.6170    24.4460 O.2   1 LIG   0.0000 
 38 O62      9.1540     5.8000    26.5980 O.2   1 LIG   0.0000 
 39 C63     11.0590     7.2560    25.4400 C.3   1 LIG   0.0000 
 40 C64     10.7040     8.5250    26.1960 C.3   1 LIG   0.0000 
 41 C67     10.9570     8.2480    27.6670 C.3   1 LIG   0.0000 
 42 C70     12.3840     7.7590    27.7810 C.3   1 LIG   0.0000 
 43 CL71    13.6020     9.0230    27.4780 Cl    1 LIG   0.0000 
 44 S72     12.3860     6.5480    26.4420 S.3   1 LIG   0.0000 
 45 C73     11.2330     4.8500    23.4860 C.3   1 LIG   0.0000 
 46 C76     11.7760     3.5540    22.9050 C.3   1 LIG   0.0000 
 47 C79     10.0040    -0.7760    22.1060 C.ar  1 LIG   0.0000 
 48 C80     11.1410    -1.2940    22.9720 C.3   1 LIG   0.0000 
 49 C83     10.7060    -2.5730    23.6680 C.3   1 LIG   0.0000 
 50 C86      9.8370    -2.2280    24.8670 C.2   1 LIG   0.0000 
 51 C87      9.5950    -0.9190    25.3640 C.2   1 LIG   0.0000 
 52 C89      8.7840    -0.8300    26.4550 C.2   1 LIG   0.0000 
 53 S91      8.3510    -2.4440    26.7990 S.3   1 LIG   0.0000 
 54 C92      9.2090    -3.2240    25.5530 C.2   1 LIG   0.0000 
 55 C94      8.9240    -1.6060    21.8330 C.ar  1 LIG   0.0000 
 56 C96      7.8560    -1.1840    21.0460 C.ar  1 LIG   0.0000 
 57 C97      4.4360    -3.8400    22.8280 C.3   1 LIG   0.0000 
 58 C100     3.7690    -3.8570    24.1940 C.3   1 LIG   0.0000 
 59 S103     5.0590    -3.9760    28.1130 S.3   1 LIG   0.0000 
 60 C104     6.0970    -5.9320    32.1460 C.3   1 LIG   0.0000 
 61 C107     5.5670    -5.7620    33.5620 C.3   1 LIG   0.0000 
 62 H19      3.3920    -6.9980    27.8240 H     1 LIG   0.0000 
 63 H21      2.3750    -5.2330    26.3670 H     1 LIG   0.0000 
 64 H39      4.9460    -2.1590    19.7860 H     1 LIG   0.0000 
 65 H41      5.0140     0.0580    18.9040 H     1 LIG   0.0000 
 66 H43      6.8630     1.4990    19.3640 H     1 LIG   0.0000 
 67 H46      8.9680     1.8870    20.4080 H     1 LIG   0.0000 
 68 H94      8.9140    -2.5320    22.2120 H     1 LIG   0.0000 
 69 H87      9.9980    -0.1090    24.9380 H     1 LIG   0.0000 
 70 H89      8.5050    -0.0040    26.9440 H     1 LIG   0.0000 
 71 H92      9.2460    -4.2060    25.3650 H     1 LIG   0.0000 
 72 H31      4.6060    -4.5040    36.6040 H     1 LIG   0.0000 
 73 H32      5.8290    -4.4760    35.5220 H     1 LIG   0.0000 
 74 H81      2.7240    -4.4050    32.4300 H     1 LIG   0.0000 
 75 H82      2.6990    -6.0180    32.6850 H     1 LIG   0.0000 
 76 H111     3.2790    -5.8000    30.4890 H     1 LIG   0.0000 
 77 H112     4.3200    -4.5830    30.8100 H     1 LIG   0.0000 
 78 H241     2.3880    -2.5690    26.1110 H     1 LIG   0.0000 
 79 H242     3.6700    -1.7760    26.7390 H     1 LIG   0.0000 
 80 H27      3.6620    -1.8480    24.3690 H     1 LIG   0.0000 
 81 H281     5.8720    -3.1310    25.6010 H     1 LIG   0.0000 
 82 H282     5.6460    -1.5160    25.5100 H     1 LIG   0.0000 
 83 H311     5.8000    -1.6040    23.1560 H     1 LIG   0.0000 
 84 H312     7.1420    -2.2690    23.8080 H     1 LIG   0.0000 
 85 H491    11.8070     1.0050    22.4980 H     1 LIG   0.0000 
 86 H492    11.6570     1.6420    21.0020 H     1 LIG   0.0000 
 87 H52     10.1700     3.1940    21.7330 H     1 LIG   0.0000 
 88 H531    10.2300     1.9100    24.2620 H     1 LIG   0.0000 
 89 H532     8.9850     1.8630    23.2060 H     1 LIG   0.0000 
 90 H561     8.6770     4.1920    23.4300 H     1 LIG   0.0000 
 91 H562     8.6060     3.4970    24.9060 H     1 LIG   0.0000 
 92 H63     11.4070     7.4890    24.5320 H     1 LIG   0.0000 
 93 H641     9.7420     8.7550    26.0500 H     1 LIG   0.0000 
 94 H642    11.2780     9.2830    25.8860 H     1 LIG   0.0000 
 95 H671    10.8360     9.0850    28.2010 H     1 LIG   0.0000 
 96 H672    10.3250     7.5470    27.9990 H     1 LIG   0.0000 
 97 H70     12.5400     7.3160    28.6640 H     1 LIG   0.0000 
 98 H731    11.9940     5.4020    23.8280 H     1 LIG   0.0000 
 99 H732    10.7510     5.3560    22.7700 H     1 LIG   0.0000 
100 H761    12.3760     3.7640    22.1340 H     1 LIG   0.0000 
101 H762    12.2950     3.0700    23.6090 H     1 LIG   0.0000 
102 H801    11.3780    -0.6060    23.6580 H     1 LIG   0.0000 
103 H802    11.9380    -1.4810    22.3980 H     1 LIG   0.0000 
104 H831    10.1840    -3.1390    23.0300 H     1 LIG   0.0000 
105 H832    11.5130    -3.0770    23.9760 H     1 LIG   0.0000 
106 H971     4.2750    -4.7160    22.3720 H     1 LIG   0.0000 
107 H972     4.0450    -3.1020    22.2800 H     1 LIG   0.0000 
108 H100     2.7820    -3.9670    24.0770 H     1 LIG   0.0000 
109 H100     4.1280    -4.6240    24.7270 H     1 LIG   0.0000 
110 H104     6.4280    -5.0470    31.8180 H     1 LIG   0.0000 
111 H104     6.8540    -6.5850    32.1620 H     1 LIG   0.0000 
112 H107     5.4620    -6.6640    33.9810 H     1 LIG   0.0000 
113 H107     6.2220    -5.2230    34.0920 H     1 LIG   0.0000 
@<TRIPOS>BOND
  1   1   2  2   
  2   2   3  1   
  3   2   5  am  
  4   3   4  1   
  5   3  72  1   
  6   3  73  1   
  7   5   6  1   
  8   5  61  1   
  9   6   7  1   
 10   6  74  1   
 11   6  75  1   
 12   7   8  1   
 13   7  76  1   
 14   7  77  1   
 15   8   9  am  
 16   8  60  1   
 17   9  10  2   
 18   9  11  2   
 19   9  12  1   
 20  12  13  2   
 21  12  59  1   
 22  13  14  1   
 23  13  62  1   
 24  14  15  2   
 25  14  63  1   
 26  15  16  1   
 27  15  59  1   
 28  16  17  1   
 29  16  78  1   
 30  16  79  1   
 31  17  18  1   
 32  17  58  1   
 33  17  80  1   
 34  18  19  1   
 35  18  81  1   
 36  18  82  1   
 37  19  20  1   
 38  19  83  1   
 39  19  84  1   
 40  20  21  am  
 41  20  57  1   
 42  21  22  2   
 43  21  23  2   
 44  21  24  1   
 45  24  25  ar  
 46  24  56  ar  
 47  25  26  ar  
 48  25  64  1   
 49  26  27  ar  
 50  26  65  1   
 51  27  28  ar  
 52  27  66  1   
 53  28  29  ar  
 54  28  56  ar  
 55  29  30  ar  
 56  29  67  1   
 57  30  31  1   
 58  30  47  ar  
 59  31  32  1   
 60  31  85  1   
 61  31  86  1   
 62  32  33  1   
 63  32  46  1   
 64  32  87  1   
 65  33  34  1   
 66  33  88  1   
 67  33  89  1   
 68  34  35  1   
 69  34  90  1   
 70  34  91  1   
 71  35  36  am  
 72  35  45  1   
 73  36  37  2   
 74  36  38  2   
 75  36  39  1   
 76  39  40  1   
 77  39  44  1   
 78  39  92  1   
 79  40  41  1   
 80  40  93  1   
 81  40  94  1   
 82  41  42  1   
 83  41  95  1   
 84  41  96  1   
 85  42  43  1   
 86  42  44  1   
 87  42  97  1   
 88  45  46  1   
 89  45  98  1   
 90  45  99  1   
 91  46 100  1   
 92  46 101  1   
 93  47  48  1   
 94  47  55  ar  
 95  48  49  1   
 96  48 102  1   
 97  48 103  1   
 98  49  50  1   
 99  49 104  1   
100  49 105  1   
101  50  51  1   
102  50  54  2   
103  51  52  2   
104  51  69  1   
105  52  53  1   
106  52  70  1   
107  53  54  1   
108  54  71  1   
109  55  56  ar  
110  55  68  1   
111  57  58  1   
112  57 106  1   
113  57 107  1   
114  58 108  1   
115  58 109  1   
116  60  61  1   
117  60 110  1   
118  60 111  1   
119  61 112  1   
120  61 113  1   
@<TRIPOS>SUBSTRUCTURE
  1 LIG  52 GROUP 4 **** **** 0
@<TRIPOS>PROPERTY_DATA
index	|	ligand394
Name	|	MAK-UNK-e05-6
ChemPlp	|	-119.674
MM-GBSA Nwat=0	|	80.6587
STDEV0	|	13.0292
MM-GBSA Nwat=30	|	85.5944
STDEV30	|	25.6205
MM-GBSA Nwat=60	|	34.058
STDEV60	|	24.7158
ST.DEV < 10%	|	N
RMSD LIG < 2	|	
DIST < 5	|	
DIST < 3.5	|	N

# MOE 2019.01 (io_trps.svl 2018.10)

@<TRIPOS>MOLECULE
ligand492
52 54 1 0 0 
SMALL
NO_CHARGES


@<TRIPOS>ATOM
  1 C1      13.6000     0.6960    23.0600 C.1   1 LIG   0.0000 
  2 C3      12.5860     0.0750    23.0980 C.1   1 LIG   0.0000 
  3 C4      11.2900    -0.7180    23.1470 C.ar  1 LIG   0.0000 
  4 C5      10.1320    -0.2390    22.5390 C.ar  1 LIG   0.0000 
  5 N7       9.0000    -0.9570    22.5930 N.ar  1 LIG   0.0000 
  6 C8       8.9420    -2.1400    23.2240 C.ar  1 LIG   0.0000 
  7 C10     10.0700    -2.6630    23.8480 C.ar  1 LIG   0.0000 
  8 N11     10.0390    -3.8940    24.5130 N.pl3 1 LIG   0.0000 
  9 C13      9.1690    -4.0860    25.5790 C.2   1 LIG   0.0000 
 10 C14      8.4410    -3.0340    26.0440 C.2   1 LIG   0.0000 
 11 S16      7.5290    -3.6900    27.3260 S.3   1 LIG   0.0000 
 12 C17      8.0980    -5.2940    27.2460 C.2   1 LIG   0.0000 
 13 N18      7.6990    -6.3470    28.0750 N.am  1 LIG   0.0000 
 14 S20      6.3900    -6.1810    29.0310 S.o2  1 LIG   0.0000 
 15 O21      5.9670    -7.4760    29.4960 O.2   1 LIG   0.0000 
 16 O22      6.7220    -5.3510    30.1610 O.2   1 LIG   0.0000 
 17 C23      5.0490    -5.4100    28.0910 C.3   1 LIG   0.0000 
 18 C26      4.7420    -6.2520    26.8630 C.3   1 LIG   0.0000 
 19 N29      5.5280    -5.7600    25.7240 N.3   1 LIG   0.0000 
 20 C30      5.0720    -6.5040    24.5380 C.3   1 LIG   0.0000 
 21 C33      5.7970    -6.0500    23.2790 C.3   1 LIG   0.0000 
 22 N36      5.8600    -4.5820    23.1930 N.am  1 LIG   0.0000 
 23 C37      5.8410    -3.9740    21.9340 C.2   1 LIG   0.0000 
 24 O38      5.7720    -4.6480    20.9430 O.2   1 LIG   0.0000 
 25 C39      5.9050    -2.4600    21.8210 C.3   1 LIG   0.0000 
 26 CL42     5.8040    -1.9880    20.1070 Cl    1 LIG   0.0000 
 27 C43      5.9370    -3.7200    24.3830 C.3   1 LIG   0.0000 
 28 C46      5.1930    -4.3370    25.5580 C.3   1 LIG   0.0000 
 29 C49      8.9930    -5.3330    26.2260 C.2   1 LIG   0.0000 
 30 C51     11.2580    -1.9410    23.8080 C.ar  1 LIG   0.0000 
 31 H5      10.1450     0.6400    22.0610 H     1 LIG   0.0000 
 32 H8       8.0820    -2.6500    23.2450 H     1 LIG   0.0000 
 33 H51     12.0810    -2.2980    24.2500 H     1 LIG   0.0000 
 34 H14      8.4410    -2.0920    25.7090 H     1 LIG   0.0000 
 35 H49      9.4810    -6.1640    25.9580 H     1 LIG   0.0000 
 36 H231     5.3270    -4.4930    27.8050 H     1 LIG   0.0000 
 37 H232     4.2320    -5.3470    28.6640 H     1 LIG   0.0000 
 38 H261     4.9810    -7.2060    27.0450 H     1 LIG   0.0000 
 39 H262     3.7680    -6.1870    26.6490 H     1 LIG   0.0000 
 40 H301     4.0910    -6.3540    24.4190 H     1 LIG   0.0000 
 41 H302     5.2470    -7.4780    24.6800 H     1 LIG   0.0000 
 42 H331     6.7270    -6.4160    23.2900 H     1 LIG   0.0000 
 43 H332     5.3100    -6.4020    22.4800 H     1 LIG   0.0000 
 44 H391     5.1420    -2.0550    22.3240 H     1 LIG   0.0000 
 45 H392     6.7680    -2.1330    22.2060 H     1 LIG   0.0000 
 46 H431     5.5290    -2.8320    24.1690 H     1 LIG   0.0000 
 47 H432     6.8960    -3.5940    24.6340 H     1 LIG   0.0000 
 48 H461     5.4410    -3.8460    26.3930 H     1 LIG   0.0000 
 49 H462     4.2090    -4.2510    25.4010 H     1 LIG   0.0000 
 50 H11     10.6420    -4.6360    24.2200 H     1 LIG   0.0000 
 51 H18      8.2170    -7.2020    28.0810 H     1 LIG   0.0000 
 52 H1      14.4530     1.2170    23.0280 H     1 LIG   0.0000 
@<TRIPOS>BOND
  1   1   2  3   
  2   1  52  1   
  3   2   3  1   
  4   3   4  ar  
  5   3  30  ar  
  6   4   5  ar  
  7   4  31  1   
  8   5   6  ar  
  9   6   7  ar  
 10   6  32  1   
 11   7   8  1   
 12   7  30  ar  
 13   8   9  1   
 14   8  50  1   
 15   9  10  2   
 16   9  29  1   
 17  10  11  1   
 18  10  34  1   
 19  11  12  1   
 20  12  13  1   
 21  12  29  2   
 22  13  14  am  
 23  13  51  1   
 24  14  15  2   
 25  14  16  2   
 26  14  17  1   
 27  17  18  1   
 28  17  36  1   
 29  17  37  1   
 30  18  19  1   
 31  18  38  1   
 32  18  39  1   
 33  19  20  1   
 34  19  28  1   
 35  20  21  1   
 36  20  40  1   
 37  20  41  1   
 38  21  22  1   
 39  21  42  1   
 40  21  43  1   
 41  22  23  am  
 42  22  27  1   
 43  23  24  2   
 44  23  25  1   
 45  25  26  1   
 46  25  44  1   
 47  25  45  1   
 48  27  28  1   
 49  27  46  1   
 50  27  47  1   
 51  28  48  1   
 52  28  49  1   
 53  29  35  1   
 54  30  33  1   
@<TRIPOS>SUBSTRUCTURE
  1 LIG  10 GROUP 4 **** **** 0
@<TRIPOS>PROPERTY_DATA
index	|	ligand492
Name	|	NIY-UNK-626-4
ChemPlp	|	-92.5562
MM-GBSA Nwat=0	|	83.1643
STDEV0	|	8.2413
MM-GBSA Nwat=30	|	85.6502
STDEV30	|	14.7286
MM-GBSA Nwat=60	|	74.1611
STDEV60	|	14.9574
ST.DEV < 10%	|	N
RMSD LIG < 2	|	
DIST < 5	|	
DIST < 3.5	|	N

# MOE 2019.01 (io_trps.svl 2018.10)

@<TRIPOS>MOLECULE
ligand308
71 76 1 0 0 
SMALL
NO_CHARGES


@<TRIPOS>ATOM
  1 O1       5.3030    -3.8120    20.9960 O.2   1 LIG   0.0000 
  2 C2       6.2430    -3.0730    20.8950 C.2   1 LIG   0.0000 
  3 C3       6.0920    -1.7470    20.1670 C.3   1 LIG   0.0000 
  4 CL6      6.4120    -0.4100    21.2980 Cl    1 LIG   0.0000 
  5 N7       7.4750    -3.4330    21.4490 N.am  1 LIG   0.0000 
  6 C8       7.7120    -4.6900    22.1680 C.3   1 LIG   0.0000 
  7 C11      8.4150    -4.3380    23.4710 C.ar  1 LIG   0.0000 
  8 C12      8.5460    -5.3540    24.4060 C.ar  1 LIG   0.0000 
  9 C14      9.1860    -5.1290    25.6200 C.ar  1 LIG   0.0000 
 10 C16      9.7010    -3.8680    25.9020 C.ar  1 LIG   0.0000 
 11 C18      9.5690    -2.8480    24.9660 C.ar  1 LIG   0.0000 
 12 C20      8.9330    -3.0690    23.7500 C.ar  1 LIG   0.0000 
 13 C21      8.8110    -1.9350    22.7430 C.3   1 LIG   0.0000 
 14 C22     10.0840    -1.1030    22.6930 C.ar  1 LIG   0.0000 
 15 C23     11.3210    -1.7350    22.6280 C.ar  1 LIG   0.0000 
 16 C25     12.4740    -0.9580    22.5830 C.ar  1 LIG   0.0000 
 17 C27     12.4050     0.4300    22.6020 C.ar  1 LIG   0.0000 
 18 C29     11.1570     1.0410    22.6670 C.ar  1 LIG   0.0000 
 19 N30     11.0750     2.4380    22.6870 N.pl3 1 LIG   0.0000 
 20 C33     12.2160     3.2340    23.1640 C.3   1 LIG   0.0000 
 21 C36     11.7030     4.4680    23.8990 C.2   1 LIG   0.0000 
 22 C37     12.5230     5.4240    24.5450 C.2   1 LIG   0.0000 
 23 C39     11.6830     6.3550    25.0800 C.2   1 LIG   0.0000 
 24 C40     12.1020     7.5160    25.8400 C.ar  1 LIG   0.0000 
 25 C41     12.8600     8.5100    25.2300 C.ar  1 LIG   0.0000 
 26 C43     13.2610     9.6240    25.9600 C.ar  1 LIG   0.0000 
 27 C45     12.9060     9.7440    27.2990 C.ar  1 LIG   0.0000 
 28 C47     12.1480     8.7500    27.9090 C.ar  1 LIG   0.0000 
 29 C49     11.7460     7.6360    27.1800 C.ar  1 LIG   0.0000 
 30 F50     11.0220     6.6850    27.7640 F     1 LIG   0.0000 
 31 N51     10.3990     5.9990    24.7670 N.pl3 1 LIG   0.0000 
 32 S52      9.0150     6.8610    25.2140 S.o2  1 LIG   0.0000 
 33 O53      8.2510     6.0860    26.1570 O.2   1 LIG   0.0000 
 34 O54      9.4020     8.1080    25.8210 O.2   1 LIG   0.0000 
 35 C55      8.0480     7.1780    23.8030 C.ar  1 LIG   0.0000 
 36 C56      8.1980     6.3830    22.6720 C.ar  1 LIG   0.0000 
 37 C58      7.4240     6.6360    21.5450 C.ar  1 LIG   0.0000 
 38 C60      6.5120     7.6870    21.5760 C.ar  1 LIG   0.0000 
 39 N62      6.3820     8.4430    22.6770 N.ar  1 LIG   0.0000 
 40 C63      7.1190     8.2130    23.7740 C.ar  1 LIG   0.0000 
 41 C65     10.3900     4.8390    24.0440 C.2   1 LIG   0.0000 
 42 C67      9.9900     0.2850    22.7130 C.ar  1 LIG   0.0000 
 43 C69      8.6730    -2.5900    21.3810 C.3   1 LIG   0.0000 
 44 H12      8.1760    -6.2610    24.2040 H     1 LIG   0.0000 
 45 H14      9.2740    -5.8690    26.2860 H     1 LIG   0.0000 
 46 H16     10.1620    -3.6960    26.7730 H     1 LIG   0.0000 
 47 H18      9.9390    -1.9420    25.1700 H     1 LIG   0.0000 
 48 H23     11.3800    -2.7330    22.6140 H     1 LIG   0.0000 
 49 H25     13.3670    -1.4060    22.5360 H     1 LIG   0.0000 
 50 H27     13.2390     0.9820    22.5700 H     1 LIG   0.0000 
 51 H67      9.0970     0.7320    22.7600 H     1 LIG   0.0000 
 52 H37     13.5220     5.4180    24.5980 H     1 LIG   0.0000 
 53 H65      9.5880     4.3580    23.6920 H     1 LIG   0.0000 
 54 H41     13.1160     8.4240    24.2680 H     1 LIG   0.0000 
 55 H43     13.8050    10.3400    25.5210 H     1 LIG   0.0000 
 56 H45     13.1950    10.5450    27.8240 H     1 LIG   0.0000 
 57 H47     11.8920     8.8370    28.8720 H     1 LIG   0.0000 
 58 H56      8.8590     5.6320    22.6700 H     1 LIG   0.0000 
 59 H58      7.5210     6.0720    20.7250 H     1 LIG   0.0000 
 60 H60      5.9490     7.8800    20.7720 H     1 LIG   0.0000 
 61 H63      7.0000     8.7930    24.5790 H     1 LIG   0.0000 
 62 H31      6.7450    -1.7070    19.4100 H     1 LIG   0.0000 
 63 H32      5.1620    -1.6670    19.8100 H     1 LIG   0.0000 
 64 H81      8.2900    -5.2950    21.6200 H     1 LIG   0.0000 
 65 H82      6.8420    -5.1440    22.3600 H     1 LIG   0.0000 
 66 H21      8.0170    -1.3620    22.9450 H     1 LIG   0.0000 
 67 H331    12.7730     3.5180    22.3830 H     1 LIG   0.0000 
 68 H332    12.7710     2.6820    23.7850 H     1 LIG   0.0000 
 69 H691     8.5670    -1.8940    20.6710 H     1 LIG   0.0000 
 70 H692     9.4790    -3.1480    21.1820 H     1 LIG   0.0000 
 71 H30     10.2410     2.8940    22.3780 H     1 LIG   0.0000 
@<TRIPOS>BOND
  1   1   2  2   
  2   2   3  1   
  3   2   5  am  
  4   3   4  1   
  5   3  62  1   
  6   3  63  1   
  7   5   6  1   
  8   5  43  1   
  9   6   7  1   
 10   6  64  1   
 11   6  65  1   
 12   7   8  ar  
 13   7  12  ar  
 14   8   9  ar  
 15   8  44  1   
 16   9  10  ar  
 17   9  45  1   
 18  10  11  ar  
 19  10  46  1   
 20  11  12  ar  
 21  11  47  1   
 22  12  13  1   
 23  13  14  1   
 24  13  43  1   
 25  13  66  1   
 26  14  15  ar  
 27  14  42  ar  
 28  15  16  ar  
 29  15  48  1   
 30  16  17  ar  
 31  16  49  1   
 32  17  18  ar  
 33  17  50  1   
 34  18  19  1   
 35  18  42  ar  
 36  19  20  1   
 37  19  71  1   
 38  20  21  1   
 39  20  67  1   
 40  20  68  1   
 41  21  22  1   
 42  21  41  2   
 43  22  23  2   
 44  22  52  1   
 45  23  24  1   
 46  23  31  1   
 47  24  25  ar  
 48  24  29  ar  
 49  25  26  ar  
 50  25  54  1   
 51  26  27  ar  
 52  26  55  1   
 53  27  28  ar  
 54  27  56  1   
 55  28  29  ar  
 56  28  57  1   
 57  29  30  1   
 58  31  32  1   
 59  31  41  1   
 60  32  33  2   
 61  32  34  2   
 62  32  35  1   
 63  35  36  ar  
 64  35  40  ar  
 65  36  37  ar  
 66  36  58  1   
 67  37  38  ar  
 68  37  59  1   
 69  38  39  ar  
 70  38  60  1   
 71  39  40  ar  
 72  40  61  1   
 73  41  53  1   
 74  42  51  1   
 75  43  69  1   
 76  43  70  1   
@<TRIPOS>SUBSTRUCTURE
  1 LIG  19 GROUP 4 **** **** 0
@<TRIPOS>PROPERTY_DATA
index	|	ligand308
Name	|	MAK-UNK-702-15
ChemPlp	|	-105.254
MM-GBSA Nwat=0	|	5.8562
STDEV0	|	5.1842
MM-GBSA Nwat=30	|	88.9235
STDEV30	|	13.7594
MM-GBSA Nwat=60	|	51.9181
STDEV60	|	13.5978
ST.DEV < 10%	|	N
RMSD LIG < 2	|	
DIST < 5	|	
DIST < 3.5	|	N

# MOE 2019.01 (io_trps.svl 2018.10)

@<TRIPOS>MOLECULE
ligand350
74 77 1 0 0 
SMALL
USER_CHARGES


@<TRIPOS>ATOM
  1 C1       4.1280     8.1750    20.4860 C.3   1 LIG   0.0000 
  2 N5       5.0480     7.2990    21.2270 N.4   1 LIG   1.0000 
  3 C8       6.3990     7.8800    21.2070 C.3   1 LIG   0.0000 
  4 C11      7.2520     7.2190    22.2860 C.2   1 LIG   0.0000 
  5 C12      7.6660     7.8450    23.4860 C.2   1 LIG   0.0000 
  6 C14      8.4080     6.9250    24.1650 C.2   1 LIG   0.0000 
  7 C15      9.0400     7.1500    25.4520 C.ar  1 LIG   0.0000 
  8 C16     10.2540     6.5400    25.7450 C.ar  1 LIG   0.0000 
  9 C18     10.8600     6.7560    26.9780 C.ar  1 LIG   0.0000 
 10 C20     10.2510     7.5810    27.9190 C.ar  1 LIG   0.0000 
 11 C22      9.0360     8.1900    27.6250 C.ar  1 LIG   0.0000 
 12 C24      8.4290     7.9750    26.3920 C.ar  1 LIG   0.0000 
 13 F25      7.2670     8.5580    26.1110 F     1 LIG   0.0000 
 14 N26      8.4400     5.7750    23.4250 N.pl3 1 LIG   0.0000 
 15 S27      9.2410     4.3540    23.8730 S.o2  1 LIG   0.0000 
 16 O28      8.7120     3.2480    23.1180 O.2   1 LIG   0.0000 
 17 O29      9.0430     4.1140    25.2790 O.2   1 LIG   0.0000 
 18 C30     10.9420     4.5190    23.5460 C.ar  1 LIG   0.0000 
 19 C31     11.4520     5.7390    23.1140 C.ar  1 LIG   0.0000 
 20 N33     12.7600     5.8850    22.8570 N.ar  1 LIG   0.0000 
 21 C34     13.6180     4.8660    23.0080 C.ar  1 LIG   0.0000 
 22 C36     13.1730     3.6200    23.4370 C.ar  1 LIG   0.0000 
 23 C38     11.8190     3.4530    23.7060 C.ar  1 LIG   0.0000 
 24 C39     11.3320     2.0910    24.1750 C.3   1 LIG   0.0000 
 25 C40     12.4870     1.3280    24.8020 C.3   1 LIG   0.0000 
 26 N44     10.8110     1.3350    23.0270 N.am  1 LIG   0.0000 
 27 C45     11.1790     1.7290    21.6600 C.3   1 LIG   0.0000 
 28 C49      9.9820     0.2640    23.2320 C.2   1 LIG   0.0000 
 29 O50      9.6810    -0.0580    24.3480 O.2   1 LIG   0.0000 
 30 C51      9.4430    -0.5180    22.0450 C.3   1 LIG   0.0000 
 31 C53      8.6090    -1.6700    22.5880 C.3   1 LIG   0.0000 
 32 C56      7.9490    -2.4780    21.4790 C.3   1 LIG   0.0000 
 33 N59      7.3220    -1.6130    20.4660 N.am  1 LIG   0.0000 
 34 C60      6.1720    -2.0750    19.8220 C.2   1 LIG   0.0000 
 35 O61      5.7200    -3.1520    20.0990 O.2   1 LIG   0.0000 
 36 C62      5.4920    -1.2140    18.7690 C.3   1 LIG   0.0000 
 37 CL65     5.2020     0.4130    19.4310 Cl    1 LIG   0.0000 
 38 C66      7.8430    -0.2850    20.1010 C.3   1 LIG   0.0000 
 39 C69      8.5110     0.4100    21.2790 C.3   1 LIG   0.0000 
 40 C72      7.7380     5.9370    22.2650 C.2   1 LIG   0.0000 
 41 H12      7.4550     8.7780    23.7780 H     1 LIG   0.0000 
 42 H72      7.6050     5.2560    21.5440 H     1 LIG   0.0000 
 43 H16     10.6920     5.9460    25.0700 H     1 LIG   0.0000 
 44 H18     11.7340     6.3180    27.1900 H     1 LIG   0.0000 
 45 H20     10.6860     7.7350    28.8050 H     1 LIG   0.0000 
 46 H22      8.5980     8.7840    28.3000 H     1 LIG   0.0000 
 47 H31     10.8350     6.5170    22.9920 H     1 LIG   0.0000 
 48 H34     14.5890     5.0030    22.8100 H     1 LIG   0.0000 
 49 H36     13.8130     2.8600    23.5490 H     1 LIG   0.0000 
 50 H11      3.2100     7.7800    20.4990 H     1 LIG   0.0000 
 51 H12      4.1100     9.0780    20.9150 H     1 LIG   0.0000 
 52 H13      4.4400     8.2620    19.5400 H     1 LIG   0.0000 
 53 H51      4.7370     7.2120    22.1730 H     1 LIG   0.0000 
 54 H52      5.0670     6.3960    20.7980 H     1 LIG   0.0000 
 55 H81      6.3420     8.8620    21.3820 H     1 LIG   0.0000 
 56 H82      6.8160     7.7240    20.3120 H     1 LIG   0.0000 
 57 H39     10.6060     2.2120    24.8520 H     1 LIG   0.0000 
 58 H401    12.8420     1.8430    25.5830 H     1 LIG   0.0000 
 59 H402    12.1670     0.4330    25.1100 H     1 LIG   0.0000 
 60 H403    13.2130     1.2080    24.1250 H     1 LIG   0.0000 
 61 H451    11.7840     2.5240    21.6930 H     1 LIG   0.0000 
 62 H452    11.6490     0.9700    21.2100 H     1 LIG   0.0000 
 63 H453    10.3530     1.9600    21.1460 H     1 LIG   0.0000 
 64 H51     10.1840    -0.8500    21.4620 H     1 LIG   0.0000 
 65 H531     7.8970    -1.2990    23.1830 H     1 LIG   0.0000 
 66 H532     9.2040    -2.2760    23.1170 H     1 LIG   0.0000 
 67 H561     8.6440    -3.0440    21.0340 H     1 LIG   0.0000 
 68 H562     7.2470    -3.0650    21.8810 H     1 LIG   0.0000 
 69 H621     6.0800    -1.1460    17.9630 H     1 LIG   0.0000 
 70 H622     4.6200    -1.6300    18.5120 H     1 LIG   0.0000 
 71 H661     7.0840     0.2820    19.7800 H     1 LIG   0.0000 
 72 H662     8.5130    -0.3910    19.3660 H     1 LIG   0.0000 
 73 H691     9.0410     1.1860    20.9370 H     1 LIG   0.0000 
 74 H692     7.8020     0.7400    21.9020 H     1 LIG   0.0000 
@<TRIPOS>BOND
  1   1   2  1   
  2   1  50  1   
  3   1  51  1   
  4   1  52  1   
  5   2   3  1   
  6   2  53  1   
  7   2  54  1   
  8   3   4  1   
  9   3  55  1   
 10   3  56  1   
 11   4   5  1   
 12   4  40  2   
 13   5   6  2   
 14   5  41  1   
 15   6   7  1   
 16   6  14  1   
 17   7   8  ar  
 18   7  12  ar  
 19   8   9  ar  
 20   8  43  1   
 21   9  10  ar  
 22   9  44  1   
 23  10  11  ar  
 24  10  45  1   
 25  11  12  ar  
 26  11  46  1   
 27  12  13  1   
 28  14  15  1   
 29  14  40  1   
 30  15  16  2   
 31  15  17  2   
 32  15  18  1   
 33  18  19  ar  
 34  18  23  ar  
 35  19  20  ar  
 36  19  47  1   
 37  20  21  ar  
 38  21  22  ar  
 39  21  48  1   
 40  22  23  ar  
 41  22  49  1   
 42  23  24  1   
 43  24  25  1   
 44  24  26  1   
 45  24  57  1   
 46  25  58  1   
 47  25  59  1   
 48  25  60  1   
 49  26  27  1   
 50  26  28  am  
 51  27  61  1   
 52  27  62  1   
 53  27  63  1   
 54  28  29  2   
 55  28  30  1   
 56  30  31  1   
 57  30  39  1   
 58  30  64  1   
 59  31  32  1   
 60  31  65  1   
 61  31  66  1   
 62  32  33  1   
 63  32  67  1   
 64  32  68  1   
 65  33  34  am  
 66  33  38  1   
 67  34  35  2   
 68  34  36  1   
 69  36  37  1   
 70  36  69  1   
 71  36  70  1   
 72  38  39  1   
 73  38  71  1   
 74  38  72  1   
 75  39  73  1   
 76  39  74  1   
 77  40  42  1   
@<TRIPOS>SUBSTRUCTURE
  1 LIG  16 GROUP 4 **** **** 0
@<TRIPOS>PROPERTY_DATA
index	|	ligand350
Name	|	MAK-UNK-8fd-6
ChemPlp	|	-97.7955
MM-GBSA Nwat=0	|	31.2834
STDEV0	|	8.2362
MM-GBSA Nwat=30	|	90.1147
STDEV30	|	13.6006
MM-GBSA Nwat=60	|	62.4281
STDEV60	|	15.5123
ST.DEV < 10%	|	N
RMSD LIG < 2	|	
DIST < 5	|	
DIST < 3.5	|	N

# MOE 2019.01 (io_trps.svl 2018.10)

@<TRIPOS>MOLECULE
ligand343
74 77 1 0 0 
SMALL
USER_CHARGES


@<TRIPOS>ATOM
  1 C1      12.3700     1.8300    22.8930 C.3   1 LIG   0.0000 
  2 C5      12.6170     0.5810    23.7240 C.3   1 LIG   0.0000 
  3 C7      12.0860     0.7970    25.1320 C.3   1 LIG   0.0000 
  4 N11     11.9260    -0.5610    23.1090 N.am  1 LIG   0.0000 
  5 C12     12.7010    -1.7000    22.5960 C.3   1 LIG   0.0000 
  6 C16     10.5590    -0.5640    23.0130 C.2   1 LIG   0.0000 
  7 O17      9.9260     0.3650    23.4320 O.2   1 LIG   0.0000 
  8 C18      9.8440    -1.7460    22.3770 C.3   1 LIG   0.0000 
  9 C19      9.3010    -2.6080    23.5090 C.3   1 LIG   0.0000 
 10 C22      8.4750    -3.7820    23.0020 C.3   1 LIG   0.0000 
 11 N25      7.5260    -3.3790    21.9510 N.am  1 LIG   0.0000 
 12 C26      6.2990    -4.0470    21.8750 C.2   1 LIG   0.0000 
 13 O27      5.5000    -3.7400    21.0330 O.2   1 LIG   0.0000 
 14 C28      5.9780    -5.1610    22.8570 C.3   1 LIG   0.0000 
 15 CL31     6.7180    -6.6790    22.2950 Cl    1 LIG   0.0000 
 16 C32      7.8060    -2.3040    20.9850 C.3   1 LIG   0.0000 
 17 C35      8.6650    -1.1990    21.5840 C.3   1 LIG   0.0000 
 18 N36      9.1230    -0.3290    20.4920 N.4   1 LIG   1.0000 
 19 C39      7.9670     0.1130    19.7000 C.3   1 LIG   0.0000 
 20 C42      7.1570     1.1260    20.5030 C.2   1 LIG   0.0000 
 21 C43      5.7480     1.2600    20.4500 C.2   1 LIG   0.0000 
 22 C45      5.4250     2.2720    21.3050 C.2   1 LIG   0.0000 
 23 C46      4.0800     2.7540    21.5550 C.ar  1 LIG   0.0000 
 24 C47      3.7550     3.2950    22.7940 C.ar  1 LIG   0.0000 
 25 C49      2.4650     3.7570    23.0340 C.ar  1 LIG   0.0000 
 26 C51      1.5000     3.6760    22.0350 C.ar  1 LIG   0.0000 
 27 C53      1.8250     3.1350    20.7960 C.ar  1 LIG   0.0000 
 28 C55      3.1150     2.6730    20.5560 C.ar  1 LIG   0.0000 
 29 F56      3.4260     2.1550    19.3710 F     1 LIG   0.0000 
 30 N57      6.5810     2.7350    21.8720 N.pl3 1 LIG   0.0000 
 31 S58      6.6730     3.9880    23.0050 S.o2  1 LIG   0.0000 
 32 O59      5.9680     5.1390    22.5050 O.2   1 LIG   0.0000 
 33 O60      6.0770     3.5600    24.2440 O.2   1 LIG   0.0000 
 34 C61      8.3410     4.4020    23.2760 C.ar  1 LIG   0.0000 
 35 C62      8.7280     5.7380    23.2740 C.ar  1 LIG   0.0000 
 36 C64     10.0610     6.0680    23.4920 C.ar  1 LIG   0.0000 
 37 C66     10.9820     5.0480    23.7070 C.ar  1 LIG   0.0000 
 38 N68     10.5890     3.7650    23.7060 N.ar  1 LIG   0.0000 
 39 C69      9.3080     3.4270    23.4980 C.ar  1 LIG   0.0000 
 40 C71      7.6570     2.0450    21.3900 C.2   1 LIG   0.0000 
 41 H43      5.1160     0.7200    19.8960 H     1 LIG   0.0000 
 42 H71      8.6160     2.1830    21.6350 H     1 LIG   0.0000 
 43 H47      4.4480     3.3520    23.5120 H     1 LIG   0.0000 
 44 H49      2.2310     4.1470    23.9240 H     1 LIG   0.0000 
 45 H51      0.5720     4.0080    22.2070 H     1 LIG   0.0000 
 46 H53      1.1320     3.0770    20.0780 H     1 LIG   0.0000 
 47 H62      8.0510     6.4570    23.1170 H     1 LIG   0.0000 
 48 H64     10.3540     7.0250    23.4930 H     1 LIG   0.0000 
 49 H66     11.9440     5.2720    23.8650 H     1 LIG   0.0000 
 50 H69      9.0450     2.4620    23.5020 H     1 LIG   0.0000 
 51 H11     12.8400     2.6070    23.3110 H     1 LIG   0.0000 
 52 H12     12.7190     1.6880    21.9670 H     1 LIG   0.0000 
 53 H13     11.3880     2.0160    22.8540 H     1 LIG   0.0000 
 54 H5      13.5980     0.3950    23.7630 H     1 LIG   0.0000 
 55 H71     12.5560     1.5740    25.5500 H     1 LIG   0.0000 
 56 H72     11.1040     0.9820    25.0930 H     1 LIG   0.0000 
 57 H73     12.2480    -0.0250    25.6780 H     1 LIG   0.0000 
 58 H121    13.6760    -1.5340    22.7460 H     1 LIG   0.0000 
 59 H122    12.4270    -2.5330    23.0770 H     1 LIG   0.0000 
 60 H123    12.5270    -1.8080    21.6170 H     1 LIG   0.0000 
 61 H18     10.4630    -2.2680    21.7900 H     1 LIG   0.0000 
 62 H191     8.7250    -2.0400    24.0960 H     1 LIG   0.0000 
 63 H192    10.0710    -2.9630    24.0390 H     1 LIG   0.0000 
 64 H221     9.0930    -4.4750    22.6300 H     1 LIG   0.0000 
 65 H222     7.9620    -4.1700    23.7680 H     1 LIG   0.0000 
 66 H281     6.3420    -4.9260    23.7580 H     1 LIG   0.0000 
 67 H282     4.9860    -5.2760    22.9180 H     1 LIG   0.0000 
 68 H321     6.9390    -1.9090    20.6820 H     1 LIG   0.0000 
 69 H322     8.2870    -2.6940    20.2000 H     1 LIG   0.0000 
 70 H35      8.0950    -0.6570    22.2010 H     1 LIG   0.0000 
 71 H361     9.7560    -0.8350    19.9050 H     1 LIG   0.0000 
 72 H362     9.5900     0.4690    20.8750 H     1 LIG   0.0000 
 73 H391     7.3920    -0.6750    19.4810 H     1 LIG   0.0000 
 74 H392     8.2860     0.5380    18.8530 H     1 LIG   0.0000 
@<TRIPOS>BOND
  1   1   2  1   
  2   1  51  1   
  3   1  52  1   
  4   1  53  1   
  5   2   3  1   
  6   2   4  1   
  7   2  54  1   
  8   3  55  1   
  9   3  56  1   
 10   3  57  1   
 11   4   5  1   
 12   4   6  am  
 13   5  58  1   
 14   5  59  1   
 15   5  60  1   
 16   6   7  2   
 17   6   8  1   
 18   8   9  1   
 19   8  17  1   
 20   8  61  1   
 21   9  10  1   
 22   9  62  1   
 23   9  63  1   
 24  10  11  1   
 25  10  64  1   
 26  10  65  1   
 27  11  12  am  
 28  11  16  1   
 29  12  13  2   
 30  12  14  1   
 31  14  15  1   
 32  14  66  1   
 33  14  67  1   
 34  16  17  1   
 35  16  68  1   
 36  16  69  1   
 37  17  18  1   
 38  17  70  1   
 39  18  19  1   
 40  18  71  1   
 41  18  72  1   
 42  19  20  1   
 43  19  73  1   
 44  19  74  1   
 45  20  21  1   
 46  20  40  2   
 47  21  22  2   
 48  21  41  1   
 49  22  23  1   
 50  22  30  1   
 51  23  24  ar  
 52  23  28  ar  
 53  24  25  ar  
 54  24  43  1   
 55  25  26  ar  
 56  25  44  1   
 57  26  27  ar  
 58  26  45  1   
 59  27  28  ar  
 60  27  46  1   
 61  28  29  1   
 62  30  31  1   
 63  30  40  1   
 64  31  32  2   
 65  31  33  2   
 66  31  34  1   
 67  34  35  ar  
 68  34  39  ar  
 69  35  36  ar  
 70  35  47  1   
 71  36  37  ar  
 72  36  48  1   
 73  37  38  ar  
 74  37  49  1   
 75  38  39  ar  
 76  39  50  1   
 77  40  42  1   
@<TRIPOS>SUBSTRUCTURE
  1 LIG  40 GROUP 4 **** **** 0
@<TRIPOS>PROPERTY_DATA
index	|	ligand343
Name	|	MAK-UNK-8fd-37
ChemPlp	|	-96.1661
MM-GBSA Nwat=0	|	48.1391
STDEV0	|	4.4077
MM-GBSA Nwat=30	|	90.1936
STDEV30	|	12.8738
MM-GBSA Nwat=60	|	72.4627
STDEV60	|	12.3883
ST.DEV < 10%	|	N
RMSD LIG < 2	|	
DIST < 5	|	
DIST < 3.5	|	N

# MOE 2019.01 (io_trps.svl 2018.10)

@<TRIPOS>MOLECULE
ligand306
71 76 1 0 0 
SMALL
NO_CHARGES


@<TRIPOS>ATOM
  1 O1       5.2480    -3.8260    21.0380 O.2   1 LIG   0.0000 
  2 C2       6.1840    -3.0830    20.9320 C.2   1 LIG   0.0000 
  3 C3       6.0220    -1.7530    20.2150 C.3   1 LIG   0.0000 
  4 CL6      6.4220    -0.4250    21.3310 Cl    1 LIG   0.0000 
  5 N7       7.4240    -3.4420    21.4700 N.am  1 LIG   0.0000 
  6 C8       7.6740    -4.7040    22.1780 C.3   1 LIG   0.0000 
  7 C11      8.3890    -4.3590    23.4750 C.ar  1 LIG   0.0000 
  8 C12      8.5340    -5.3800    24.4020 C.ar  1 LIG   0.0000 
  9 C14      9.1860    -5.1610    25.6110 C.ar  1 LIG   0.0000 
 10 C16      9.7000    -3.9000    25.8960 C.ar  1 LIG   0.0000 
 11 C18      9.5550    -2.8750    24.9680 C.ar  1 LIG   0.0000 
 12 C20      8.9060    -3.0890    23.7570 C.ar  1 LIG   0.0000 
 13 C21      8.7690    -1.9490    22.7600 C.3   1 LIG   0.0000 
 14 C22     10.0380    -1.1120    22.7010 C.ar  1 LIG   0.0000 
 15 C23     11.2800    -1.7390    22.6860 C.ar  1 LIG   0.0000 
 16 C25     12.4300    -0.9580    22.6330 C.ar  1 LIG   0.0000 
 17 C27     12.3530     0.4300    22.5950 C.ar  1 LIG   0.0000 
 18 C29     11.1010     1.0350    22.6120 C.ar  1 LIG   0.0000 
 19 N30     11.0130     2.4310    22.5740 N.pl3 1 LIG   0.0000 
 20 C33     12.1600     3.2520    22.9870 C.3   1 LIG   0.0000 
 21 C36     11.6620     4.4820    23.7390 C.2   1 LIG   0.0000 
 22 C37     12.4940     5.4290    24.3820 C.2   1 LIG   0.0000 
 23 C39     11.6640     6.3600    24.9340 C.2   1 LIG   0.0000 
 24 C40     12.0970     7.5130    25.6990 C.ar  1 LIG   0.0000 
 25 C41     12.8640     8.5010    25.0920 C.ar  1 LIG   0.0000 
 26 C43     13.2790     9.6080    25.8260 C.ar  1 LIG   0.0000 
 27 C45     12.9280     9.7250    27.1670 C.ar  1 LIG   0.0000 
 28 C47     12.1610     8.7370    27.7740 C.ar  1 LIG   0.0000 
 29 C49     11.7460     7.6300    27.0410 C.ar  1 LIG   0.0000 
 30 F50     11.0120     6.6850    27.6220 F     1 LIG   0.0000 
 31 N51     10.3750     6.0110    24.6340 N.pl3 1 LIG   0.0000 
 32 S52      9.0000     6.8760    25.1050 S.o2  1 LIG   0.0000 
 33 O53      8.2560     6.1070    26.0690 O.2   1 LIG   0.0000 
 34 O54      9.3990     8.1280    25.6940 O.2   1 LIG   0.0000 
 35 C55      8.0030     7.1820    23.7130 C.ar  1 LIG   0.0000 
 36 C56      8.1110     6.3640    22.5940 C.ar  1 LIG   0.0000 
 37 C58      7.3130     6.6090    21.4810 C.ar  1 LIG   0.0000 
 38 C60      6.4200     7.6750    21.5150 C.ar  1 LIG   0.0000 
 39 N62      6.3300     8.4540    22.6040 N.ar  1 LIG   0.0000 
 40 C63      7.0910     8.2320    23.6860 C.ar  1 LIG   0.0000 
 41 C65     10.3520     4.8580    23.9020 C.2   1 LIG   0.0000 
 42 C67      9.9380     0.2750    22.6640 C.ar  1 LIG   0.0000 
 43 C69      8.6190    -2.5950    21.3950 C.3   1 LIG   0.0000 
 44 H12      8.1650    -6.2870    24.1980 H     1 LIG   0.0000 
 45 H14      9.2840    -5.9060    26.2710 H     1 LIG   0.0000 
 46 H16     10.1700    -3.7320    26.7620 H     1 LIG   0.0000 
 47 H18      9.9240    -1.9690    25.1740 H     1 LIG   0.0000 
 48 H23     11.3440    -2.7370    22.7130 H     1 LIG   0.0000 
 49 H25     13.3260    -1.4020    22.6210 H     1 LIG   0.0000 
 50 H27     13.1850     0.9840    22.5570 H     1 LIG   0.0000 
 51 H67      9.0420     0.7180    22.6760 H     1 LIG   0.0000 
 52 H37     13.4930     5.4180    24.4240 H     1 LIG   0.0000 
 53 H65      9.5440     4.3830    23.5560 H     1 LIG   0.0000 
 54 H41     13.1170     8.4160    24.1290 H     1 LIG   0.0000 
 55 H43     13.8300    10.3190    25.3890 H     1 LIG   0.0000 
 56 H45     13.2270    10.5200    27.6940 H     1 LIG   0.0000 
 57 H47     11.9080     8.8220    28.7380 H     1 LIG   0.0000 
 58 H56      8.7600     5.6020    22.5890 H     1 LIG   0.0000 
 59 H58      7.3810     6.0280    20.6700 H     1 LIG   0.0000 
 60 H60      5.8400     7.8620    20.7220 H     1 LIG   0.0000 
 61 H63      7.0010     8.8300    24.4830 H     1 LIG   0.0000 
 62 H31      6.6360    -1.7220    19.4260 H     1 LIG   0.0000 
 63 H32      5.0760    -1.6540    19.9060 H     1 LIG   0.0000 
 64 H81      8.2470    -5.3030    21.6200 H     1 LIG   0.0000 
 65 H82      6.8070    -5.1620    22.3770 H     1 LIG   0.0000 
 66 H21      7.9760    -1.3800    22.9740 H     1 LIG   0.0000 
 67 H331    12.6720     3.5400    22.1780 H     1 LIG   0.0000 
 68 H332    12.7560     2.7150    23.5840 H     1 LIG   0.0000 
 69 H691     8.5020    -1.8940    20.6910 H     1 LIG   0.0000 
 70 H692     9.4240    -3.1490    21.1830 H     1 LIG   0.0000 
 71 H30     10.1680     2.8700    22.2670 H     1 LIG   0.0000 
@<TRIPOS>BOND
  1   1   2  2   
  2   2   3  1   
  3   2   5  am  
  4   3   4  1   
  5   3  62  1   
  6   3  63  1   
  7   5   6  1   
  8   5  43  1   
  9   6   7  1   
 10   6  64  1   
 11   6  65  1   
 12   7   8  ar  
 13   7  12  ar  
 14   8   9  ar  
 15   8  44  1   
 16   9  10  ar  
 17   9  45  1   
 18  10  11  ar  
 19  10  46  1   
 20  11  12  ar  
 21  11  47  1   
 22  12  13  1   
 23  13  14  1   
 24  13  43  1   
 25  13  66  1   
 26  14  15  ar  
 27  14  42  ar  
 28  15  16  ar  
 29  15  48  1   
 30  16  17  ar  
 31  16  49  1   
 32  17  18  ar  
 33  17  50  1   
 34  18  19  1   
 35  18  42  ar  
 36  19  20  1   
 37  19  71  1   
 38  20  21  1   
 39  20  67  1   
 40  20  68  1   
 41  21  22  1   
 42  21  41  2   
 43  22  23  2   
 44  22  52  1   
 45  23  24  1   
 46  23  31  1   
 47  24  25  ar  
 48  24  29  ar  
 49  25  26  ar  
 50  25  54  1   
 51  26  27  ar  
 52  26  55  1   
 53  27  28  ar  
 54  27  56  1   
 55  28  29  ar  
 56  28  57  1   
 57  29  30  1   
 58  31  32  1   
 59  31  41  1   
 60  32  33  2   
 61  32  34  2   
 62  32  35  1   
 63  35  36  ar  
 64  35  40  ar  
 65  36  37  ar  
 66  36  58  1   
 67  37  38  ar  
 68  37  59  1   
 69  38  39  ar  
 70  38  60  1   
 71  39  40  ar  
 72  40  61  1   
 73  41  53  1   
 74  42  51  1   
 75  43  69  1   
 76  43  70  1   
@<TRIPOS>SUBSTRUCTURE
  1 LIG  19 GROUP 4 **** **** 0
@<TRIPOS>PROPERTY_DATA
index	|	ligand306
Name	|	MAK-UNK-702-13
ChemPlp	|	-105.683
MM-GBSA Nwat=0	|	3.0751
STDEV0	|	3.861
MM-GBSA Nwat=30	|	91.3408
STDEV30	|	13.6807
MM-GBSA Nwat=60	|	58.6151
STDEV60	|	13.9315
ST.DEV < 10%	|	N
RMSD LIG < 2	|	
DIST < 5	|	
DIST < 3.5	|	N

# MOE 2019.01 (io_trps.svl 2018.10)

@<TRIPOS>MOLECULE
ligand490
55 58 1 0 0 
SMALL
NO_CHARGES


@<TRIPOS>ATOM
  1 C1       1.8800    -7.4460    30.3680 C.1   1 LIG   0.0000 
  2 H2       1.0260    -7.7840    30.7640 H     1 LIG   0.0000 
  3 C3       2.8950    -7.0420    29.8970 C.1   1 LIG   0.0000 
  4 C4       4.1940    -6.5270    29.2950 C.ar  1 LIG   0.0000 
  5 C5       4.9020    -5.5200    29.9420 C.ar  1 LIG   0.0000 
  6 H6       4.5560    -5.1380    30.7980 H     1 LIG   0.0000 
  7 C7       6.0900    -5.0420    29.3990 C.ar  1 LIG   0.0000 
  8 H8       6.6040    -4.3180    29.8580 H     1 LIG   0.0000 
  9 C9       6.5510    -5.5900    28.2050 C.ar  1 LIG   0.0000 
 10 N10      7.7480    -5.0980    27.6720 N.pl3 1 LIG   0.0000 
 11 H11      8.4710    -4.7730    28.2820 H     1 LIG   0.0000 
 12 C12      7.9320    -5.0620    26.2940 C.2   1 LIG   0.0000 
 13 C13      9.1340    -4.6340    25.8130 C.2   1 LIG   0.0000 
 14 H14      9.9320    -4.3360    26.3360 H     1 LIG   0.0000 
 15 S15      8.9700    -4.7240    24.1200 S.3   1 LIG   0.0000 
 16 C16      7.3760    -5.3050    24.0500 C.2   1 LIG   0.0000 
 17 C17      6.5860    -5.6160    22.7870 C.3   1 LIG   0.0000 
 18 H18      6.9220    -6.4670    22.3850 H     1 LIG   0.0000 
 19 H19      5.6170    -5.7140    23.0160 H     1 LIG   0.0000 
 20 S20      6.7900    -4.2650    21.6000 S.o2  1 LIG   0.0000 
 21 O21      8.1480    -4.2480    21.1210 O.2   1 LIG   0.0000 
 22 O22      5.8930    -4.4610    20.4900 O.2   1 LIG   0.0000 
 23 C23      6.4160    -2.6890    22.4070 C.3   1 LIG   0.0000 
 24 H24      6.9940    -2.5830    23.2160 H     1 LIG   0.0000 
 25 H25      5.4540    -2.6760    22.6820 H     1 LIG   0.0000 
 26 C26      6.6830    -1.5470    21.4390 C.ar  1 LIG   0.0000 
 27 C27      5.9040    -1.4650    20.2910 C.ar  1 LIG   0.0000 
 28 H28      5.1960    -2.1500    20.1210 H     1 LIG   0.0000 
 29 C29      6.1030    -0.4340    19.3770 C.ar  1 LIG   0.0000 
 30 H30      5.5330    -0.3830    18.5580 H     1 LIG   0.0000 
 31 C31      7.0870     0.5250    19.5910 C.ar  1 LIG   0.0000 
 32 H32      7.2280     1.2690    18.9380 H     1 LIG   0.0000 
 33 C33      7.8670     0.4220    20.7320 C.ar  1 LIG   0.0000 
 34 C34      7.6710    -0.5910    21.6650 C.ar  1 LIG   0.0000 
 35 C35      8.5580    -0.6080    22.9000 C.3   1 LIG   0.0000 
 36 H36      8.1800     0.0130    23.5860 H     1 LIG   0.0000 
 37 H37      8.5880    -1.5360    23.2710 H     1 LIG   0.0000 
 38 N38      9.9200    -0.1780    22.5550 N.am  1 LIG   0.0000 
 39 C39     10.9700    -0.6300    23.3640 C.2   1 LIG   0.0000 
 40 O40     10.7410    -1.3430    24.3020 O.2   1 LIG   0.0000 
 41 C41     12.4000    -0.2170    23.0550 C.3   1 LIG   0.0000 
 42 H42     12.3980     0.6710    22.5940 H     1 LIG   0.0000 
 43 H43     12.9190    -0.1490    23.9070 H     1 LIG   0.0000 
 44 CL44    13.1530    -1.4330    21.9950 Cl    1 LIG   0.0000 
 45 C45     10.1810     0.6960    21.3980 C.3   1 LIG   0.0000 
 46 H46     10.5100     0.1300    20.6420 H     1 LIG   0.0000 
 47 H47     10.8870     1.3560    21.6540 H     1 LIG   0.0000 
 48 C48      8.9570     1.4620    20.9260 C.3   1 LIG   0.0000 
 49 H49      8.6790     2.1320    21.6140 H     1 LIG   0.0000 
 50 H50      9.1500     1.9290    20.0630 H     1 LIG   0.0000 
 51 C51      6.9490    -5.4300    25.3400 C.2   1 LIG   0.0000 
 52 H52      6.0350    -5.7510    25.5890 H     1 LIG   0.0000 
 53 N53      5.8550    -6.5610    27.5950 N.ar  1 LIG   0.0000 
 54 C54      4.7080    -7.0320    28.1040 C.ar  1 LIG   0.0000 
 55 H55      4.2150    -7.7570    27.6230 H     1 LIG   0.0000 
@<TRIPOS>BOND
  1   1   2  1   
  2   1   3  3   
  3   3   4  1   
  4   4   5  ar  
  5   4  54  ar  
  6   5   6  1   
  7   5   7  ar  
  8   7   8  1   
  9   7   9  ar  
 10   9  10  1   
 11   9  53  ar  
 12  10  11  1   
 13  10  12  1   
 14  12  13  2   
 15  12  51  1   
 16  13  14  1   
 17  13  15  1   
 18  15  16  1   
 19  16  17  1   
 20  16  51  2   
 21  17  18  1   
 22  17  19  1   
 23  17  20  1   
 24  20  21  2   
 25  20  22  2   
 26  20  23  1   
 27  23  24  1   
 28  23  25  1   
 29  23  26  1   
 30  26  27  ar  
 31  26  34  ar  
 32  27  28  1   
 33  27  29  ar  
 34  29  30  1   
 35  29  31  ar  
 36  31  32  1   
 37  31  33  ar  
 38  33  34  ar  
 39  33  48  1   
 40  34  35  1   
 41  35  36  1   
 42  35  37  1   
 43  35  38  1   
 44  38  39  am  
 45  38  45  1   
 46  39  40  2   
 47  39  41  1   
 48  41  42  1   
 49  41  43  1   
 50  41  44  1   
 51  45  46  1   
 52  45  47  1   
 53  45  48  1   
 54  48  49  1   
 55  48  50  1   
 56  51  52  1   
 57  53  54  ar  
 58  54  55  1   
@<TRIPOS>SUBSTRUCTURE
  1 LIG  16 GROUP 4 **** **** 0
@<TRIPOS>PROPERTY_DATA
index	|	ligand490
Name	|	NIY-UNK-626-1
ChemPlp	|	-96.3026
MM-GBSA Nwat=0	|	17.2907
STDEV0	|	3.6232
MM-GBSA Nwat=30	|	91.7772
STDEV30	|	18.0591
MM-GBSA Nwat=60	|	31.1447
STDEV60	|	17.8082
ST.DEV < 10%	|	N
RMSD LIG < 2	|	
DIST < 5	|	
DIST < 3.5	|	N

# MOE 2019.01 (io_trps.svl 2018.10)

@<TRIPOS>MOLECULE
ligand240
54 56 1 0 0 
SMALL
NO_CHARGES


@<TRIPOS>ATOM
  1 C1       6.9850    -6.1490    21.6930 C.2   1 LIG   0.0000 
  2 H2       6.9580    -7.1450    21.6060 H     1 LIG   0.0000 
  3 H3       7.4940    -5.7260    22.4430 H     1 LIG   0.0000 
  4 C4       6.3580    -5.4040    20.8320 C.2   1 LIG   0.0000 
  5 H5       5.8490    -5.8270    20.0820 H     1 LIG   0.0000 
  6 C6       6.3990    -3.8910    20.9640 C.2   1 LIG   0.0000 
  7 O7       5.7580    -3.2060    20.2160 O.2   1 LIG   0.0000 
  8 N8       7.1670    -3.3090    21.9380 N.am  1 LIG   0.0000 
  9 H9       7.7020    -3.8790    22.5610 H     1 LIG   0.0000 
 10 C10      7.2060    -1.8420    22.0650 C.3   1 LIG   0.0000 
 11 H11      6.5900    -1.3460    21.4530 H     1 LIG   0.0000 
 12 C12      8.6200    -1.3210    22.1120 C.3   1 LIG   0.0000 
 13 H13      9.3000    -1.9800    22.4340 H     1 LIG   0.0000 
 14 H14      8.9410    -0.9000    21.2630 H     1 LIG   0.0000 
 15 N15      8.1520    -0.3730    23.1280 N.am  1 LIG   0.0000 
 16 S16      9.3670    -0.0870    24.3680 S.o2  1 LIG   0.0000 
 17 O17      9.1950    -1.0380    25.4360 O.2   1 LIG   0.0000 
 18 O18      9.2190     1.2480    24.8850 O.2   1 LIG   0.0000 
 19 C19     10.9540    -0.2700    23.6780 C.ar  1 LIG   0.0000 
 20 C20     11.4130    -1.5330    23.3140 C.ar  1 LIG   0.0000 
 21 F21     10.6280    -2.5920    23.4980 F     1 LIG   0.0000 
 22 C22     12.6790    -1.6980    22.7610 C.ar  1 LIG   0.0000 
 23 H23     13.0000    -2.6090    22.5020 H     1 LIG   0.0000 
 24 C24     13.4960    -0.5890    22.5710 C.ar  1 LIG   0.0000 
 25 H25     14.4070    -0.7010    22.1750 H     1 LIG   0.0000 
 26 C26     13.0450     0.6770    22.9320 C.ar  1 LIG   0.0000 
 27 H27     13.6320     1.4750    22.7950 H     1 LIG   0.0000 
 28 C28     11.7780     0.8330    23.4840 C.ar  1 LIG   0.0000 
 29 O29     11.3400     2.0620    23.8340 O.3   1 LIG   0.0000 
 30 C30     12.1570     3.2000    23.6000 C.3   1 LIG   0.0000 
 31 H31     12.2950     3.3140    22.6170 H     1 LIG   0.0000 
 32 H32     13.0410     3.0730    24.0490 H     1 LIG   0.0000 
 33 C33     11.4760     4.4360    24.1640 C.3   1 LIG   0.0000 
 34 H34     12.0410     5.2410    23.9800 H     1 LIG   0.0000 
 35 H35     11.3570     4.3310    25.1510 H     1 LIG   0.0000 
 36 C36     10.1170     4.6100    23.5060 C.3   1 LIG   0.0000 
 37 H37     10.2330     4.6940    22.5170 H     1 LIG   0.0000 
 38 H38      9.5440     3.8160    23.7080 H     1 LIG   0.0000 
 39 N39      9.4720     5.8240    24.0280 N.pl3 1 LIG   0.0000 
 40 H40      9.7810     6.2230    24.8910 H     1 LIG   0.0000 
 41 C41      8.4240     6.4210    23.3160 C.ar  1 LIG   0.0000 
 42 C42      7.8980     7.6140    23.8020 C.ar  1 LIG   0.0000 
 43 H43      8.2610     8.0280    24.6370 H     1 LIG   0.0000 
 44 C44      6.8570     8.2200    23.1070 C.ar  1 LIG   0.0000 
 45 H45      6.4660     9.0780    23.4420 H     1 LIG   0.0000 
 46 C46      6.3590     7.6370    21.9470 C.ar  1 LIG   0.0000 
 47 C47      5.2200     8.3080    21.1940 C.1   1 LIG   0.0000 
 48 N48      4.3670     8.8110    20.6290 N.1   1 LIG   0.0000 
 49 C49      6.9300     6.4440    21.5140 C.ar  1 LIG   0.0000 
 50 H50      6.5870     6.0070    20.6820 H     1 LIG   0.0000 
 51 N51      7.9320     5.8720    22.1960 N.ar  1 LIG   0.0000 
 52 C52      7.1770    -1.3920    23.5110 C.3   1 LIG   0.0000 
 53 H53      6.2960    -1.0340    23.8220 H     1 LIG   0.0000 
 54 H54      7.5120    -2.0680    24.1680 H     1 LIG   0.0000 
@<TRIPOS>BOND
  1   1   2  1   
  2   1   3  1   
  3   1   4  2   
  4   4   5  1   
  5   4   6  1   
  6   6   7  2   
  7   6   8  am  
  8   8   9  1   
  9   8  10  1   
 10  10  11  1   
 11  10  12  1   
 12  10  52  1   
 13  12  13  1   
 14  12  14  1   
 15  12  15  1   
 16  15  16  am  
 17  15  52  1   
 18  16  17  2   
 19  16  18  2   
 20  16  19  1   
 21  19  20  ar  
 22  19  28  ar  
 23  20  21  1   
 24  20  22  ar  
 25  22  23  1   
 26  22  24  ar  
 27  24  25  1   
 28  24  26  ar  
 29  26  27  1   
 30  26  28  ar  
 31  28  29  1   
 32  29  30  1   
 33  30  31  1   
 34  30  32  1   
 35  30  33  1   
 36  33  34  1   
 37  33  35  1   
 38  33  36  1   
 39  36  37  1   
 40  36  38  1   
 41  36  39  1   
 42  39  40  1   
 43  39  41  1   
 44  41  42  ar  
 45  41  51  ar  
 46  42  43  1   
 47  42  44  ar  
 48  44  45  1   
 49  44  46  ar  
 50  46  47  1   
 51  46  49  ar  
 52  47  48  3   
 53  49  50  1   
 54  49  51  ar  
 55  52  53  1   
 56  52  54  1   
@<TRIPOS>SUBSTRUCTURE
  1 LIG  15 GROUP 4 **** **** 0
@<TRIPOS>PROPERTY_DATA
index	|	ligand240
Name	|	JAN-GHE-bf4-7
ChemPlp	|	-94.8189
MM-GBSA Nwat=0	|	34.8394
STDEV0	|	6.4581
MM-GBSA Nwat=30	|	97.0766
STDEV30	|	11.701
MM-GBSA Nwat=60	|	69.5963
STDEV60	|	13.3581
ST.DEV < 10%	|	N
RMSD LIG < 2	|	
DIST < 5	|	
DIST < 3.5	|	N

# MOE 2019.01 (io_trps.svl 2018.10)

@<TRIPOS>MOLECULE
ligand352
74 77 1 0 0 
SMALL
USER_CHARGES


@<TRIPOS>ATOM
  1 C1       1.0190     4.2660    18.3840 C.3   1 LIG   0.0000 
  2 N5       2.3290     3.6140    18.5310 N.4   1 LIG   1.0000 
  3 C8       2.2580     2.6060    19.5980 C.3   1 LIG   0.0000 
  4 C11      3.6680     2.1670    19.9770 C.2   1 LIG   0.0000 
  5 C12      4.3420     2.5430    21.1640 C.2   1 LIG   0.0000 
  6 C14      5.5680     1.9500    21.1170 C.2   1 LIG   0.0000 
  7 C15      6.5940     2.0750    22.1340 C.ar  1 LIG   0.0000 
  8 C16      7.3420     0.9640    22.5090 C.ar  1 LIG   0.0000 
  9 C18      8.3260     1.0840    23.4840 C.ar  1 LIG   0.0000 
 10 C20      8.5610     2.3160    24.0860 C.ar  1 LIG   0.0000 
 11 C22      7.8130     3.4280    23.7120 C.ar  1 LIG   0.0000 
 12 C24      6.8290     3.3080    22.7370 C.ar  1 LIG   0.0000 
 13 F25      6.1140     4.3700    22.3800 F     1 LIG   0.0000 
 14 N26      5.6460     1.2260    19.9590 N.pl3 1 LIG   0.0000 
 15 S27      6.9830     0.3130    19.4720 S.o2  1 LIG   0.0000 
 16 O28      8.1930     0.9700    19.8940 O.2   1 LIG   0.0000 
 17 O29      6.9810     0.1860    18.0380 O.2   1 LIG   0.0000 
 18 C30      6.9000    -1.2690    20.1950 C.ar  1 LIG   0.0000 
 19 C31      7.8980    -1.6880    21.0670 C.ar  1 LIG   0.0000 
 20 C33      7.8310    -2.9520    21.6450 C.ar  1 LIG   0.0000 
 21 C35      6.7560    -3.7770    21.3330 C.ar  1 LIG   0.0000 
 22 C36      6.6950    -5.1550    21.9700 C.3   1 LIG   0.0000 
 23 C37      5.8240    -6.0670    21.1220 C.3   1 LIG   0.0000 
 24 N41      6.1220    -5.0470    23.3200 N.am  1 LIG   0.0000 
 25 C42      4.6850    -4.7860    23.4890 C.3   1 LIG   0.0000 
 26 C46      6.9270    -5.1890    24.4190 C.2   1 LIG   0.0000 
 27 O47      8.0990    -5.4020    24.2810 O.2   1 LIG   0.0000 
 28 C48      6.3340    -5.0770    25.8150 C.3   1 LIG   0.0000 
 29 C50      5.3850    -6.2510    26.0120 C.3   1 LIG   0.0000 
 30 C53      4.7930    -6.2850    27.4140 C.3   1 LIG   0.0000 
 31 N56      5.8160    -6.0660    28.4490 N.am  1 LIG   0.0000 
 32 C57      5.6550    -6.7010    29.6830 C.2   1 LIG   0.0000 
 33 O58      4.7010    -7.4040    29.8760 O.2   1 LIG   0.0000 
 34 C59      6.6870    -6.5020    30.7810 C.3   1 LIG   0.0000 
 35 CL62     5.8770    -5.9370    32.2620 Cl    1 LIG   0.0000 
 36 C63      7.0010    -5.2150    28.2500 C.3   1 LIG   0.0000 
 37 C66      7.4800    -5.2330    26.8050 C.3   1 LIG   0.0000 
 38 N69      5.8010    -3.3570    20.4890 N.ar  1 LIG   0.0000 
 39 C70      5.8510    -2.1420    19.9240 C.ar  1 LIG   0.0000 
 40 C72      4.4890     1.3490    19.2420 C.2   1 LIG   0.0000 
 41 H12      3.9880     3.1290    21.8930 H     1 LIG   0.0000 
 42 H72      4.2820     0.9280    18.3600 H     1 LIG   0.0000 
 43 H16      7.1720     0.0780    22.0760 H     1 LIG   0.0000 
 44 H18      8.8640     0.2860    23.7520 H     1 LIG   0.0000 
 45 H20      9.2680     2.4030    24.7880 H     1 LIG   0.0000 
 46 H22      7.9830     4.3130    24.1450 H     1 LIG   0.0000 
 47 H31      8.6640    -1.0820    21.2800 H     1 LIG   0.0000 
 48 H33      8.5440    -3.2620    22.2740 H     1 LIG   0.0000 
 49 H70      5.1240    -1.8590    19.2990 H     1 LIG   0.0000 
 50 H11      1.0670     4.9520    17.6580 H     1 LIG   0.0000 
 51 H12      0.3300     3.5810    18.1500 H     1 LIG   0.0000 
 52 H13      0.7690     4.7090    19.2460 H     1 LIG   0.0000 
 53 H51      2.5790     3.1720    17.6700 H     1 LIG   0.0000 
 54 H52      3.0180     4.3000    18.7650 H     1 LIG   0.0000 
 55 H81      1.7380     1.8150    19.2750 H     1 LIG   0.0000 
 56 H82      1.8050     2.9990    20.3980 H     1 LIG   0.0000 
 57 H36      7.6180    -5.5360    22.0300 H     1 LIG   0.0000 
 58 H371     6.2140    -6.1410    20.2040 H     1 LIG   0.0000 
 59 H372     5.7840    -6.9750    21.5410 H     1 LIG   0.0000 
 60 H373     4.9010    -5.6870    21.0620 H     1 LIG   0.0000 
 61 H421     4.2520    -4.7100    22.5910 H     1 LIG   0.0000 
 62 H422     4.2670    -5.5380    23.9980 H     1 LIG   0.0000 
 63 H423     4.5590    -3.9310    23.9930 H     1 LIG   0.0000 
 64 H48      5.8620    -4.2040    25.9400 H     1 LIG   0.0000 
 65 H501     5.8880    -7.1010    25.8540 H     1 LIG   0.0000 
 66 H502     4.6400    -6.1770    25.3490 H     1 LIG   0.0000 
 67 H531     4.0990    -5.5690    27.4890 H     1 LIG   0.0000 
 68 H532     4.3680    -7.1780    27.5640 H     1 LIG   0.0000 
 69 H591     7.1500    -7.3690    30.9640 H     1 LIG   0.0000 
 70 H592     7.3580    -5.8220    30.4880 H     1 LIG   0.0000 
 71 H631     7.7390    -5.5460    28.8380 H     1 LIG   0.0000 
 72 H632     6.7700    -4.2750    28.5020 H     1 LIG   0.0000 
 73 H661     8.1250    -4.4810    26.6700 H     1 LIG   0.0000 
 74 H662     7.9400    -6.1030    26.6290 H     1 LIG   0.0000 
@<TRIPOS>BOND
  1   1   2  1   
  2   1  50  1   
  3   1  51  1   
  4   1  52  1   
  5   2   3  1   
  6   2  53  1   
  7   2  54  1   
  8   3   4  1   
  9   3  55  1   
 10   3  56  1   
 11   4   5  1   
 12   4  40  2   
 13   5   6  2   
 14   5  41  1   
 15   6   7  1   
 16   6  14  1   
 17   7   8  ar  
 18   7  12  ar  
 19   8   9  ar  
 20   8  43  1   
 21   9  10  ar  
 22   9  44  1   
 23  10  11  ar  
 24  10  45  1   
 25  11  12  ar  
 26  11  46  1   
 27  12  13  1   
 28  14  15  1   
 29  14  40  1   
 30  15  16  2   
 31  15  17  2   
 32  15  18  1   
 33  18  19  ar  
 34  18  39  ar  
 35  19  20  ar  
 36  19  47  1   
 37  20  21  ar  
 38  20  48  1   
 39  21  22  1   
 40  21  38  ar  
 41  22  23  1   
 42  22  24  1   
 43  22  57  1   
 44  23  58  1   
 45  23  59  1   
 46  23  60  1   
 47  24  25  1   
 48  24  26  am  
 49  25  61  1   
 50  25  62  1   
 51  25  63  1   
 52  26  27  2   
 53  26  28  1   
 54  28  29  1   
 55  28  37  1   
 56  28  64  1   
 57  29  30  1   
 58  29  65  1   
 59  29  66  1   
 60  30  31  1   
 61  30  67  1   
 62  30  68  1   
 63  31  32  am  
 64  31  36  1   
 65  32  33  2   
 66  32  34  1   
 67  34  35  1   
 68  34  69  1   
 69  34  70  1   
 70  36  37  1   
 71  36  71  1   
 72  36  72  1   
 73  37  73  1   
 74  37  74  1   
 75  38  39  ar  
 76  39  49  1   
 77  40  42  1   
@<TRIPOS>SUBSTRUCTURE
  1 LIG  20 GROUP 4 **** **** 0
@<TRIPOS>PROPERTY_DATA
index	|	ligand352
Name	|	MAK-UNK-8fd-8
ChemPlp	|	-111.307
MM-GBSA Nwat=0	|	124.109
STDEV0	|	8.2495
MM-GBSA Nwat=30	|	98.3572
STDEV30	|	11.5091
MM-GBSA Nwat=60	|	72.7133
STDEV60	|	11.5115
ST.DEV < 10%	|	N
RMSD LIG < 2	|	
DIST < 5	|	
DIST < 3.5	|	N

# MOE 2019.01 (io_trps.svl 2018.10)

@<TRIPOS>MOLECULE
ligand353
75 78 1 0 0 
SMALL
USER_CHARGES


@<TRIPOS>ATOM
  1 C1       6.6940     4.4120    21.9950 C.3   1 LIG   0.0000 
  2 N5       6.0350     5.6050    21.4450 N.4   1 LIG   1.0000 
  3 C8       7.0220     6.6820    21.2880 C.3   1 LIG   0.0000 
  4 C11      7.6970     6.9520    22.6290 C.2   1 LIG   0.0000 
  5 C12      7.2800     7.9320    23.5620 C.2   1 LIG   0.0000 
  6 C14      8.1440     7.8550    24.6150 C.2   1 LIG   0.0000 
  7 C15      8.0900     8.6900    25.7990 C.ar  1 LIG   0.0000 
  8 C16      8.4660     8.1710    27.0330 C.ar  1 LIG   0.0000 
  9 C18      8.4160     8.9710    28.1690 C.ar  1 LIG   0.0000 
 10 C20      7.9870    10.2910    28.0710 C.ar  1 LIG   0.0000 
 11 C22      7.6100    10.8100    26.8370 C.ar  1 LIG   0.0000 
 12 C24      7.6610    10.0100    25.7010 C.ar  1 LIG   0.0000 
 13 F25      7.3010    10.5070    24.5210 F     1 LIG   0.0000 
 14 N26      9.0470     6.8610    24.3520 N.pl3 1 LIG   0.0000 
 15 S27     10.3080     6.3980    25.3780 S.o2  1 LIG   0.0000 
 16 O28      9.7660     5.7420    26.5400 O.2   1 LIG   0.0000 
 17 O29     11.0470     7.5650    25.7870 O.2   1 LIG   0.0000 
 18 C30     11.3700     5.3050    24.5370 C.ar  1 LIG   0.0000 
 19 C31     12.3620     5.8190    23.7080 C.ar  1 LIG   0.0000 
 20 C33     13.2060     4.9390    23.0390 C.ar  1 LIG   0.0000 
 21 C35     13.0700     3.5630    23.1890 C.ar  1 LIG   0.0000 
 22 C37     12.0720     3.0700    24.0230 C.ar  1 LIG   0.0000 
 23 C38     11.9030     1.5700    24.2020 C.3   1 LIG   0.0000 
 24 C39     13.2710     0.9150    24.3010 C.3   1 LIG   0.0000 
 25 N43     11.1770     1.0180    23.0500 N.am  1 LIG   0.0000 
 26 C44     11.2220     1.7080    21.7530 C.3   1 LIG   0.0000 
 27 C48     10.4580    -0.1410    23.1850 C.2   1 LIG   0.0000 
 28 O49     10.4210    -0.7040    24.2440 O.2   1 LIG   0.0000 
 29 C50      9.7070    -0.7120    21.9920 C.3   1 LIG   0.0000 
 30 C52      9.0600    -2.0170    22.4340 C.3   1 LIG   0.0000 
 31 C55      8.2080    -2.6400    21.3360 C.3   1 LIG   0.0000 
 32 N58      7.3410    -1.6460    20.6820 N.am  1 LIG   0.0000 
 33 C59      6.0980    -2.0680    20.2010 C.2   1 LIG   0.0000 
 34 O60      5.7630    -3.2130    20.3280 O.2   1 LIG   0.0000 
 35 C61      5.1710    -1.0750    19.5190 C.3   1 LIG   0.0000 
 36 CL64     6.0820    -0.1560    18.2960 Cl    1 LIG   0.0000 
 37 C65      7.7140    -0.2320    20.5110 C.3   1 LIG   0.0000 
 38 C68      8.5930     0.2670    21.6500 C.3   1 LIG   0.0000 
 39 C71     11.2160     3.9320    24.7010 C.ar  1 LIG   0.0000 
 40 C73      8.7910     6.2970    23.1340 C.2   1 LIG   0.0000 
 41 H12      6.5060     8.5570    23.4680 H     1 LIG   0.0000 
 42 H73      9.3000     5.5540    22.6990 H     1 LIG   0.0000 
 43 H16      8.7740     7.2210    27.1040 H     1 LIG   0.0000 
 44 H18      8.6870     8.5980    29.0570 H     1 LIG   0.0000 
 45 H20      7.9490    10.8670    28.8880 H     1 LIG   0.0000 
 46 H22      7.3030    11.7590    26.7670 H     1 LIG   0.0000 
 47 H31     12.4660     6.8070    23.5950 H     1 LIG   0.0000 
 48 H33     13.9220     5.3020    22.4420 H     1 LIG   0.0000 
 49 H35     13.6810     2.9370    22.7040 H     1 LIG   0.0000 
 50 H71     10.5010     3.5700    25.2980 H     1 LIG   0.0000 
 51 H11      6.0230     3.6790    22.1020 H     1 LIG   0.0000 
 52 H12      7.4180     4.1140    21.3720 H     1 LIG   0.0000 
 53 H13      7.0920     4.6320    22.8860 H     1 LIG   0.0000 
 54 H51      5.6370     5.3850    20.5540 H     1 LIG   0.0000 
 55 H52      5.3120     5.9030    22.0680 H     1 LIG   0.0000 
 56 H81      6.5620     7.5130    20.9740 H     1 LIG   0.0000 
 57 H82      7.7110     6.4080    20.6180 H     1 LIG   0.0000 
 58 H38     11.3860     1.3910    25.0390 H     1 LIG   0.0000 
 59 H391    13.7650     1.2910    25.0850 H     1 LIG   0.0000 
 60 H392    13.1600    -0.0720    24.4190 H     1 LIG   0.0000 
 61 H393    13.7880     1.0940    23.4640 H     1 LIG   0.0000 
 62 H441    11.7870     2.5290    21.8320 H     1 LIG   0.0000 
 63 H442    11.6150     1.0980    21.0640 H     1 LIG   0.0000 
 64 H443    10.2960     1.9660    21.4800 H     1 LIG   0.0000 
 65 H50     10.3170    -0.8550    21.2140 H     1 LIG   0.0000 
 66 H521     8.4790    -1.8360    23.2280 H     1 LIG   0.0000 
 67 H522     9.7790    -2.6630    22.6890 H     1 LIG   0.0000 
 68 H551     8.8130    -3.0440    20.6490 H     1 LIG   0.0000 
 69 H552     7.6350    -3.3540    21.7370 H     1 LIG   0.0000 
 70 H611     4.4230    -1.5690    19.0760 H     1 LIG   0.0000 
 71 H612     4.7980    -0.4450    20.2000 H     1 LIG   0.0000 
 72 H651     6.8810     0.3200    20.4800 H     1 LIG   0.0000 
 73 H652     8.2130    -0.1320    19.6500 H     1 LIG   0.0000 
 74 H681     9.0030     1.1390    21.3810 H     1 LIG   0.0000 
 75 H682     8.0230     0.4020    22.4600 H     1 LIG   0.0000 
@<TRIPOS>BOND
  1   1   2  1   
  2   1  51  1   
  3   1  52  1   
  4   1  53  1   
  5   2   3  1   
  6   2  54  1   
  7   2  55  1   
  8   3   4  1   
  9   3  56  1   
 10   3  57  1   
 11   4   5  1   
 12   4  40  2   
 13   5   6  2   
 14   5  41  1   
 15   6   7  1   
 16   6  14  1   
 17   7   8  ar  
 18   7  12  ar  
 19   8   9  ar  
 20   8  43  1   
 21   9  10  ar  
 22   9  44  1   
 23  10  11  ar  
 24  10  45  1   
 25  11  12  ar  
 26  11  46  1   
 27  12  13  1   
 28  14  15  1   
 29  14  40  1   
 30  15  16  2   
 31  15  17  2   
 32  15  18  1   
 33  18  19  ar  
 34  18  39  ar  
 35  19  20  ar  
 36  19  47  1   
 37  20  21  ar  
 38  20  48  1   
 39  21  22  ar  
 40  21  49  1   
 41  22  23  1   
 42  22  39  ar  
 43  23  24  1   
 44  23  25  1   
 45  23  58  1   
 46  24  59  1   
 47  24  60  1   
 48  24  61  1   
 49  25  26  1   
 50  25  27  am  
 51  26  62  1   
 52  26  63  1   
 53  26  64  1   
 54  27  28  2   
 55  27  29  1   
 56  29  30  1   
 57  29  38  1   
 58  29  65  1   
 59  30  31  1   
 60  30  66  1   
 61  30  67  1   
 62  31  32  1   
 63  31  68  1   
 64  31  69  1   
 65  32  33  am  
 66  32  37  1   
 67  33  34  2   
 68  33  35  1   
 69  35  36  1   
 70  35  70  1   
 71  35  71  1   
 72  37  38  1   
 73  37  72  1   
 74  37  73  1   
 75  38  74  1   
 76  38  75  1   
 77  39  50  1   
 78  40  42  1   
@<TRIPOS>SUBSTRUCTURE
  1 LIG  40 GROUP 4 **** **** 0
@<TRIPOS>PROPERTY_DATA
index	|	ligand353
Name	|	MAK-UNK-8fd-9
ChemPlp	|	-101.737
MM-GBSA Nwat=0	|	13.8817
STDEV0	|	5.6361
MM-GBSA Nwat=30	|	99.7374
STDEV30	|	14.3097
MM-GBSA Nwat=60	|	76.8311
STDEV60	|	14.8009
ST.DEV < 10%	|	N
RMSD LIG < 2	|	
DIST < 5	|	
DIST < 3.5	|	N

# MOE 2019.01 (io_trps.svl 2018.10)

@<TRIPOS>MOLECULE
ligand344
74 77 1 0 0 
SMALL
USER_CHARGES


@<TRIPOS>ATOM
  1 C1      11.7020     0.6660    25.0720 C.3   1 LIG   0.0000 
  2 C5      12.4020     1.6890    24.1920 C.3   1 LIG   0.0000 
  3 C7      13.2960     0.9720    23.1940 C.3   1 LIG   0.0000 
  4 N11     11.3960     2.4810    23.4680 N.am  1 LIG   0.0000 
  5 C12     11.0850     2.1670    22.0660 C.3   1 LIG   0.0000 
  6 C16     10.7510     3.5100    24.1000 C.2   1 LIG   0.0000 
  7 O17     11.3520     4.5080    24.3900 O.2   1 LIG   0.0000 
  8 C18      9.2720     3.3900    24.4330 C.3   1 LIG   0.0000 
  9 N19      9.0820     2.1240    25.1560 N.4   1 LIG   1.0000 
 10 C22      7.6490     1.9120    25.4030 C.3   1 LIG   0.0000 
 11 C25      7.3720     0.4180    25.5370 C.2   1 LIG   0.0000 
 12 C26      8.3540    -0.5670    25.7970 C.2   1 LIG   0.0000 
 13 C28      7.7010    -1.7640    25.8340 C.2   1 LIG   0.0000 
 14 C29      8.3310    -3.0490    26.0670 C.ar  1 LIG   0.0000 
 15 C30      7.9400    -3.8290    27.1500 C.ar  1 LIG   0.0000 
 16 C32      8.5430    -5.0620    27.3730 C.ar  1 LIG   0.0000 
 17 C34      9.5390    -5.5150    26.5130 C.ar  1 LIG   0.0000 
 18 C36      9.9300    -4.7360    25.4300 C.ar  1 LIG   0.0000 
 19 C38      9.3270    -3.5020    25.2060 C.ar  1 LIG   0.0000 
 20 F39      9.7010    -2.7570    24.1700 F     1 LIG   0.0000 
 21 N40      6.3710    -1.5280    25.6200 N.pl3 1 LIG   0.0000 
 22 S41      5.1690    -2.7160    25.5850 S.o2  1 LIG   0.0000 
 23 O42      5.2330    -3.5000    26.7910 O.2   1 LIG   0.0000 
 24 O43      3.8760    -2.0880    25.4890 O.2   1 LIG   0.0000 
 25 C44      5.4150    -3.7490    24.2070 C.ar  1 LIG   0.0000 
 26 C45      5.9550    -5.0180    24.3860 C.ar  1 LIG   0.0000 
 27 C47      6.1510    -5.8440    23.2840 C.ar  1 LIG   0.0000 
 28 C49      5.8000    -5.3770    22.0210 C.ar  1 LIG   0.0000 
 29 N51      5.2800    -4.1500    21.8690 N.ar  1 LIG   0.0000 
 30 C52      5.0830    -3.3390    22.9200 C.ar  1 LIG   0.0000 
 31 C54      6.1480    -0.1940    25.4320 C.2   1 LIG   0.0000 
 32 C56      8.4090     3.3440    23.1790 C.3   1 LIG   0.0000 
 33 C59      8.4130     4.6530    22.3990 C.3   1 LIG   0.0000 
 34 N62      8.2870     5.8230    23.2850 N.am  1 LIG   0.0000 
 35 C63      7.6060     6.9450    22.7980 C.2   1 LIG   0.0000 
 36 O64      7.4830     7.9190    23.4900 O.2   1 LIG   0.0000 
 37 C65      7.0220     6.9310    21.3950 C.3   1 LIG   0.0000 
 38 CL68     6.0700     8.4120    21.1330 Cl    1 LIG   0.0000 
 39 C69      8.8150     5.8820    24.6580 C.3   1 LIG   0.0000 
 40 C72      8.8010     4.5200    25.3400 C.3   1 LIG   0.0000 
 41 H26      9.3340    -0.4160    25.9270 H     1 LIG   0.0000 
 42 H54      5.2690     0.2480    25.2540 H     1 LIG   0.0000 
 43 H30      7.2260    -3.5020    27.7690 H     1 LIG   0.0000 
 44 H32      8.2620    -5.6230    28.1510 H     1 LIG   0.0000 
 45 H34      9.9730    -6.4020    26.6730 H     1 LIG   0.0000 
 46 H36     10.6450    -5.0620    24.8110 H     1 LIG   0.0000 
 47 H45      6.2020    -5.3350    25.3010 H     1 LIG   0.0000 
 48 H47      6.5390    -6.7590    23.3970 H     1 LIG   0.0000 
 49 H49      5.9350    -5.9610    21.2200 H     1 LIG   0.0000 
 50 H52      4.6930    -2.4300    22.7760 H     1 LIG   0.0000 
 51 H11     12.3860     0.1270    25.5650 H     1 LIG   0.0000 
 52 H12     11.1140     1.1380    25.7290 H     1 LIG   0.0000 
 53 H13     11.1480     0.0600    24.5030 H     1 LIG   0.0000 
 54 H5      12.9560     2.2950    24.7620 H     1 LIG   0.0000 
 55 H71     13.9800     0.4330    23.6870 H     1 LIG   0.0000 
 56 H72     12.7410     0.3650    22.6250 H     1 LIG   0.0000 
 57 H73     13.7560     1.6450    22.6150 H     1 LIG   0.0000 
 58 H121    11.6430     1.3940    21.7650 H     1 LIG   0.0000 
 59 H122    10.1160     1.9310    21.9850 H     1 LIG   0.0000 
 60 H123    11.2830     2.9630    21.4940 H     1 LIG   0.0000 
 61 H191     9.5690     2.1620    26.0290 H     1 LIG   0.0000 
 62 H192     9.4410     1.3700    24.6070 H     1 LIG   0.0000 
 63 H221     7.1200     2.2820    24.6380 H     1 LIG   0.0000 
 64 H222     7.3830     2.3770    26.2470 H     1 LIG   0.0000 
 65 H561     7.4680     3.1370    23.4480 H     1 LIG   0.0000 
 66 H562     8.7520     2.6180    22.5830 H     1 LIG   0.0000 
 67 H591     9.2720     4.7230    21.8920 H     1 LIG   0.0000 
 68 H592     7.6460     4.6490    21.7580 H     1 LIG   0.0000 
 69 H651     7.7640     6.8890    20.7260 H     1 LIG   0.0000 
 70 H652     6.4310     6.1320    21.2880 H     1 LIG   0.0000 
 71 H691     8.2540     6.5150    25.1920 H     1 LIG   0.0000 
 72 H692     9.7570     6.2170    24.6280 H     1 LIG   0.0000 
 73 H721     9.4010     4.5570    26.1380 H     1 LIG   0.0000 
 74 H722     7.8660     4.3210    25.6340 H     1 LIG   0.0000 
@<TRIPOS>BOND
  1   1   2  1   
  2   1  51  1   
  3   1  52  1   
  4   1  53  1   
  5   2   3  1   
  6   2   4  1   
  7   2  54  1   
  8   3  55  1   
  9   3  56  1   
 10   3  57  1   
 11   4   5  1   
 12   4   6  am  
 13   5  58  1   
 14   5  59  1   
 15   5  60  1   
 16   6   7  2   
 17   6   8  1   
 18   8   9  1   
 19   8  32  1   
 20   8  40  1   
 21   9  10  1   
 22   9  61  1   
 23   9  62  1   
 24  10  11  1   
 25  10  63  1   
 26  10  64  1   
 27  11  12  1   
 28  11  31  2   
 29  12  13  2   
 30  12  41  1   
 31  13  14  1   
 32  13  21  1   
 33  14  15  ar  
 34  14  19  ar  
 35  15  16  ar  
 36  15  43  1   
 37  16  17  ar  
 38  16  44  1   
 39  17  18  ar  
 40  17  45  1   
 41  18  19  ar  
 42  18  46  1   
 43  19  20  1   
 44  21  22  1   
 45  21  31  1   
 46  22  23  2   
 47  22  24  2   
 48  22  25  1   
 49  25  26  ar  
 50  25  30  ar  
 51  26  27  ar  
 52  26  47  1   
 53  27  28  ar  
 54  27  48  1   
 55  28  29  ar  
 56  28  49  1   
 57  29  30  ar  
 58  30  50  1   
 59  31  42  1   
 60  32  33  1   
 61  32  65  1   
 62  32  66  1   
 63  33  34  1   
 64  33  67  1   
 65  33  68  1   
 66  34  35  am  
 67  34  39  1   
 68  35  36  2   
 69  35  37  1   
 70  37  38  1   
 71  37  69  1   
 72  37  70  1   
 73  39  40  1   
 74  39  71  1   
 75  39  72  1   
 76  40  73  1   
 77  40  74  1   
@<TRIPOS>SUBSTRUCTURE
  1 LIG  11 GROUP 4 **** **** 0
@<TRIPOS>PROPERTY_DATA
index	|	ligand344
Name	|	MAK-UNK-8fd-38
ChemPlp	|	-94.1655
MM-GBSA Nwat=0	|	14.8046
STDEV0	|	4.2896
MM-GBSA Nwat=30	|	100.547
STDEV30	|	11.3268
MM-GBSA Nwat=60	|	79.701
STDEV60	|	12.7532
ST.DEV < 10%	|	N
RMSD LIG < 2	|	
DIST < 5	|	
DIST < 3.5	|	N

# MOE 2019.01 (io_trps.svl 2018.10)

@<TRIPOS>MOLECULE
ligand359
73 75 1 0 0 
SMALL
USER_CHARGES


@<TRIPOS>ATOM
  1 C1       6.1460    -1.5060    24.8940 C.3   1 LIG   0.0000 
  2 N5       5.0470    -2.0940    24.1150 N.4   1 LIG   1.0000 
  3 C8       5.5710    -3.1760    23.2670 C.3   1 LIG   0.0000 
  4 C9       6.4860    -4.1180    24.0360 C.3   1 LIG   0.0000 
  5 O10      5.7750    -4.6320    25.1520 O.3   1 LIG   0.0000 
  6 O12      6.9760    -5.1760    23.2190 O.3   1 LIG   0.0000 
  7 C13      7.6560    -4.7080    22.0630 C.3   1 LIG   0.0000 
  8 C16      6.7910    -3.7830    21.2180 C.3   1 LIG   0.0000 
  9 O17      5.7100    -4.5420    20.6930 O.3   1 LIG   0.0000 
 10 C19      6.2910    -2.6130    22.0510 C.3   1 LIG   0.0000 
 11 O20      7.3700    -1.7770    22.4460 O.3   1 LIG   0.0000 
 12 C21      8.0130    -1.2560    21.2920 C.3   1 LIG   0.0000 
 13 C22      7.0040    -0.4880    20.4530 C.2   1 LIG   0.0000 
 14 O23      5.9770    -0.1110    20.9460 O.2   1 LIG   0.0000 
 15 N24      7.2680    -0.2270    19.1340 N.am  1 LIG   0.0000 
 16 S26      6.1540     0.5280    18.2150 S.o2  1 LIG   0.0000 
 17 N27      5.2010    -0.5810    17.4950 N.am  1 LIG   0.0000 
 18 O30      5.3480     1.3870    19.0450 O.2   1 LIG   0.0000 
 19 O31      6.8160     1.3180    17.2090 O.2   1 LIG   0.0000 
 20 C32      9.1360    -0.3230    21.7140 C.ar  1 LIG   0.0000 
 21 C33      9.0100     1.0480    21.5220 C.ar  1 LIG   0.0000 
 22 C35     10.0310     1.9120    21.9040 C.ar  1 LIG   0.0000 
 23 C37     11.1810     1.3830    22.4810 C.ar  1 LIG   0.0000 
 24 C38     12.3050     2.3140    22.9030 C.3   1 LIG   0.0000 
 25 N41     11.7440     3.6150    23.2940 N.4   1 LIG   1.0000 
 26 C43     10.9170     3.3840    24.4910 C.3   1 LIG   0.0000 
 27 C46     10.3150     4.6760    25.0220 C.3   1 LIG   0.0000 
 28 N49     11.3120     5.7560    25.0730 N.am  1 LIG   0.0000 
 29 C50     11.2060     6.7150    26.0870 C.2   1 LIG   0.0000 
 30 O51     10.3170     6.6440    26.8890 O.2   1 LIG   0.0000 
 31 C52     12.2180     7.8460    26.1720 C.3   1 LIG   0.0000 
 32 CL55    13.0780     7.7580    27.7280 Cl    1 LIG   0.0000 
 33 C56     12.4200     5.8590    24.1090 C.3   1 LIG   0.0000 
 34 C59     12.8790     4.4890    23.6320 C.3   1 LIG   0.0000 
 35 C62     11.3190     0.0120    22.6790 C.ar  1 LIG   0.0000 
 36 C64     10.2910    -0.8420    22.2930 C.ar  1 LIG   0.0000 
 37 C65     10.4640    -2.3350    22.5180 C.3   1 LIG   0.0000 
 38 H33      8.1780     1.4170    21.1060 H     1 LIG   0.0000 
 39 H35      9.9410     2.8980    21.7650 H     1 LIG   0.0000 
 40 H62     12.1500    -0.3550    23.0950 H     1 LIG   0.0000 
 41 H11      5.7890    -0.7700    25.4700 H     1 LIG   0.0000 
 42 H12      6.5590    -2.2100    25.4710 H     1 LIG   0.0000 
 43 H13      6.8360    -1.1370    24.2720 H     1 LIG   0.0000 
 44 H51      4.3570    -2.4630    24.7370 H     1 LIG   0.0000 
 45 H52      4.6330    -1.3900    23.5380 H     1 LIG   0.0000 
 46 H8       4.7920    -3.7100    22.9390 H     1 LIG   0.0000 
 47 H9       7.2670    -3.5930    24.3740 H     1 LIG   0.0000 
 48 H131     7.9240    -5.4950    21.5070 H     1 LIG   0.0000 
 49 H132     8.4740    -4.2100    22.3500 H     1 LIG   0.0000 
 50 H16      7.3380    -3.4300    20.4590 H     1 LIG   0.0000 
 51 H19      5.6440    -2.0780    21.5080 H     1 LIG   0.0000 
 52 H21      8.3900    -2.0100    20.7520 H     1 LIG   0.0000 
 53 H381    12.7950     1.9160    23.6780 H     1 LIG   0.0000 
 54 H382    12.9380     2.4410    22.1380 H     1 LIG   0.0000 
 55 H41     11.1980     4.0070    22.5530 H     1 LIG   0.0000 
 56 H431    11.4880     2.9760    25.2040 H     1 LIG   0.0000 
 57 H432    10.1770     2.7540    24.2560 H     1 LIG   0.0000 
 58 H461     9.5640     4.9540    24.4240 H     1 LIG   0.0000 
 59 H462     9.9630     4.5150    25.9450 H     1 LIG   0.0000 
 60 H521    12.8750     7.7620    25.4220 H     1 LIG   0.0000 
 61 H522    11.7440     8.7240    26.1020 H     1 LIG   0.0000 
 62 H561    13.1890     6.3240    24.5480 H     1 LIG   0.0000 
 63 H562    12.1140     6.3920    23.3200 H     1 LIG   0.0000 
 64 H591    13.4510     4.6050    22.8200 H     1 LIG   0.0000 
 65 H592    13.4150     4.0570    24.3580 H     1 LIG   0.0000 
 66 H651    11.3540    -2.5070    22.9420 H     1 LIG   0.0000 
 67 H652     9.7390    -2.6680    23.1200 H     1 LIG   0.0000 
 68 H653    10.4150    -2.8130    21.6410 H     1 LIG   0.0000 
 69 H24      8.1430    -0.4990    18.7360 H     1 LIG   0.0000 
 70 H271     4.4940    -0.8800    18.1360 H     1 LIG   0.0000 
 71 H10      5.9850    -4.0850    25.9620 H     1 LIG   0.0000 
 72 H17      5.7010    -5.4470    21.1180 H     1 LIG   0.0000 
 73 H27      4.7690    -0.1760    16.6880 H     1 LIG   0.0000 
@<TRIPOS>BOND
  1   1   2  1   
  2   1  41  1   
  3   1  42  1   
  4   1  43  1   
  5   2   3  1   
  6   2  44  1   
  7   2  45  1   
  8   3   4  1   
  9   3  10  1   
 10   3  46  1   
 11   4   5  1   
 12   4   6  1   
 13   4  47  1   
 14   5  71  1   
 15   6   7  1   
 16   7   8  1   
 17   7  48  1   
 18   7  49  1   
 19   8   9  1   
 20   8  10  1   
 21   8  50  1   
 22   9  72  1   
 23  10  11  1   
 24  10  51  1   
 25  11  12  1   
 26  12  13  1   
 27  12  20  1   
 28  12  52  1   
 29  13  14  2   
 30  13  15  am  
 31  15  16  am  
 32  15  69  1   
 33  16  17  am  
 34  16  18  2   
 35  16  19  2   
 36  17  70  1   
 37  17  73  1   
 38  20  21  ar  
 39  20  36  ar  
 40  21  22  ar  
 41  21  38  1   
 42  22  23  ar  
 43  22  39  1   
 44  23  24  1   
 45  23  35  ar  
 46  24  25  1   
 47  24  53  1   
 48  24  54  1   
 49  25  26  1   
 50  25  34  1   
 51  25  55  1   
 52  26  27  1   
 53  26  56  1   
 54  26  57  1   
 55  27  28  1   
 56  27  58  1   
 57  27  59  1   
 58  28  29  am  
 59  28  33  1   
 60  29  30  2   
 61  29  31  1   
 62  31  32  1   
 63  31  60  1   
 64  31  61  1   
 65  33  34  1   
 66  33  62  1   
 67  33  63  1   
 68  34  64  1   
 69  34  65  1   
 70  35  36  ar  
 71  35  40  1   
 72  36  37  1   
 73  37  66  1   
 74  37  67  1   
 75  37  68  1   
@<TRIPOS>SUBSTRUCTURE
  1 LIG  21 GROUP 4 **** **** 0
@<TRIPOS>PROPERTY_DATA
index	|	ligand359
Name	|	MAK-UNK-af8-16
ChemPlp	|	-104.336
MM-GBSA Nwat=0	|	34.1249
STDEV0	|	15.8377
MM-GBSA Nwat=30	|	106.211
STDEV30	|	15.1763
MM-GBSA Nwat=60	|	60.0754
STDEV60	|	12.9213
ST.DEV < 10%	|	N
RMSD LIG < 2	|	
DIST < 5	|	
DIST < 3.5	|	N

# MOE 2019.01 (io_trps.svl 2018.10)

@<TRIPOS>MOLECULE
ligand307
72 77 1 0 0 
SMALL
USER_CHARGES


@<TRIPOS>ATOM
  1 O1      10.7200     9.8010    26.6220 O.2   1 LIG   0.0000 
  2 C2      11.2030     8.7150    26.4560 C.2   1 LIG   0.0000 
  3 C3      12.7000     8.5140    26.6290 C.3   1 LIG   0.0000 
  4 H4      13.0630     8.0210    25.8380 H     1 LIG   0.0000 
  5 H5      13.1490     9.4040    26.7030 H     1 LIG   0.0000 
  6 CL6     13.0050     7.5710    28.1070 Cl    1 LIG   0.0000 
  7 N7      10.3870     7.6330    26.1040 N.am  1 LIG   0.0000 
  8 C8       8.9360     7.7160    25.9120 C.3   1 LIG   0.0000 
  9 H9       8.6410     8.6710    25.9600 H     1 LIG   0.0000 
 10 H10      8.4680     7.1870    26.6200 H     1 LIG   0.0000 
 11 C11      8.6170     7.1420    24.5400 C.ar  1 LIG   0.0000 
 12 C12      7.3500     7.3910    24.0110 C.ar  1 LIG   0.0000 
 13 H13      6.6970     7.9520    24.5190 H     1 LIG   0.0000 
 14 C14      6.9970     6.8560    22.7760 C.ar  1 LIG   0.0000 
 15 H15      6.0860     7.0360    22.4040 H     1 LIG   0.0000 
 16 C16      7.8910     6.0750    22.0500 C.ar  1 LIG   0.0000 
 17 H17      7.6280     5.6920    21.1650 H     1 LIG   0.0000 
 18 C18      9.1570     5.8350    22.5740 C.ar  1 LIG   0.0000 
 19 H19      9.8110     5.2790    22.0620 H     1 LIG   0.0000 
 20 C20      9.5160     6.3680    23.8090 C.ar  1 LIG   0.0000 
 21 C21     10.9080     6.0870    24.3520 C.3   1 LIG   0.0000 
 22 C22     11.3780     4.6700    24.0660 C.ar  1 LIG   0.0000 
 23 C23     12.4270     4.4640    23.1750 C.ar  1 LIG   0.0000 
 24 H24     12.8660     5.2430    22.7270 H     1 LIG   0.0000 
 25 C25     12.8620     3.1700    22.9100 C.ar  1 LIG   0.0000 
 26 H26     13.6150     3.0120    22.2710 H     1 LIG   0.0000 
 27 C27     12.2430     2.0960    23.5420 C.ar  1 LIG   0.0000 
 28 N28     12.6990     0.7260    23.2670 N.4   1 LIG   1.0000 
 29 H29     12.6420     0.1820    24.1040 H     1 LIG   0.0000 
 30 H30     13.6470     0.7480    22.9490 H     1 LIG   0.0000 
 31 C31     11.8480     0.1250    22.2310 C.3   1 LIG   0.0000 
 32 H32     12.3940    -0.4980    21.6710 H     1 LIG   0.0000 
 33 H33     11.4670     0.8460    21.6530 H     1 LIG   0.0000 
 34 C34     10.7120    -0.6490    22.8930 C.2   1 LIG   0.0000 
 35 C35     10.8780    -1.6180    23.9110 C.2   1 LIG   0.0000 
 36 H36     11.7410    -1.9120    24.3220 H     1 LIG   0.0000 
 37 C37      9.6300    -2.0720    24.2200 C.2   1 LIG   0.0000 
 38 C38      9.3350    -3.0860    25.2140 C.ar  1 LIG   0.0000 
 39 C39      9.8280    -4.3760    25.0590 C.ar  1 LIG   0.0000 
 40 H40     10.3860    -4.6060    24.2610 H     1 LIG   0.0000 
 41 C41      9.5460    -5.3490    26.0130 C.ar  1 LIG   0.0000 
 42 H42      9.9020    -6.2770    25.9010 H     1 LIG   0.0000 
 43 C43      8.7690    -5.0300    27.1220 C.ar  1 LIG   0.0000 
 44 H44      8.5650    -5.7290    27.8070 H     1 LIG   0.0000 
 45 C45      8.2750    -3.7390    27.2770 C.ar  1 LIG   0.0000 
 46 H46      7.7170    -3.5100    28.0750 H     1 LIG   0.0000 
 47 C47      8.5580    -2.7670    26.3240 C.ar  1 LIG   0.0000 
 48 F48      8.0860    -1.5320    26.4730 F     1 LIG   0.0000 
 49 N49      8.7290    -1.4030    23.4380 N.pl3 1 LIG   0.0000 
 50 S50      7.0540    -1.6300    23.4760 S.o2  1 LIG   0.0000 
 51 O51      6.7450    -2.8010    24.2550 O.2   1 LIG   0.0000 
 52 O52      6.4270    -0.4780    24.0710 O.2   1 LIG   0.0000 
 53 C53      6.4600    -1.8400    21.8540 C.ar  1 LIG   0.0000 
 54 C54      6.2820    -0.7290    21.0360 C.ar  1 LIG   0.0000 
 55 H55      6.4950     0.1860    21.3780 H     1 LIG   0.0000 
 56 C56      5.8080    -0.8980    19.7390 C.ar  1 LIG   0.0000 
 57 H57      5.6760    -0.1080    19.1400 H     1 LIG   0.0000 
 58 C58      5.5210    -2.1830    19.2890 C.ar  1 LIG   0.0000 
 59 H59      5.1800    -2.3180    18.3590 H     1 LIG   0.0000 
 60 N60      5.6990    -3.2420    20.0930 N.ar  1 LIG   0.0000 
 61 C61      6.1560    -3.0990    21.3460 C.ar  1 LIG   0.0000 
 62 H62      6.2780    -3.9070    21.9230 H     1 LIG   0.0000 
 63 C63      9.3740    -0.5260    22.6130 C.2   1 LIG   0.0000 
 64 H64      8.9550     0.0830    21.9400 H     1 LIG   0.0000 
 65 C65     11.1940     2.3010    24.4320 C.ar  1 LIG   0.0000 
 66 H66     10.7560     1.5220    24.8800 H     1 LIG   0.0000 
 67 C67     10.7580     3.5950    24.6960 C.ar  1 LIG   0.0000 
 68 H68     10.0030     3.7520    25.3330 H     1 LIG   0.0000 
 69 C69     10.8540     6.2610    25.8640 C.3   1 LIG   0.0000 
 70 H70     10.2170     5.6030    26.2660 H     1 LIG   0.0000 
 71 H71     11.7620     6.1300    26.2610 H     1 LIG   0.0000 
 72 H72     11.5570     6.7400    23.9630 H     1 LIG   0.0000 
@<TRIPOS>BOND
  1   1   2  2   
  2   2   3  1   
  3   2   7  am  
  4   3   4  1   
  5   3   5  1   
  6   3   6  1   
  7   7   8  1   
  8   7  69  1   
  9   8   9  1   
 10   8  10  1   
 11   8  11  1   
 12  11  12  ar  
 13  11  20  ar  
 14  12  13  1   
 15  12  14  ar  
 16  14  15  1   
 17  14  16  ar  
 18  16  17  1   
 19  16  18  ar  
 20  18  19  1   
 21  18  20  ar  
 22  20  21  1   
 23  21  22  1   
 24  21  69  1   
 25  21  72  1   
 26  22  23  ar  
 27  22  67  ar  
 28  23  24  1   
 29  23  25  ar  
 30  25  26  1   
 31  25  27  ar  
 32  27  28  1   
 33  27  65  ar  
 34  28  29  1   
 35  28  30  1   
 36  28  31  1   
 37  31  32  1   
 38  31  33  1   
 39  31  34  1   
 40  34  35  1   
 41  34  63  2   
 42  35  36  1   
 43  35  37  2   
 44  37  38  1   
 45  37  49  1   
 46  38  39  ar  
 47  38  47  ar  
 48  39  40  1   
 49  39  41  ar  
 50  41  42  1   
 51  41  43  ar  
 52  43  44  1   
 53  43  45  ar  
 54  45  46  1   
 55  45  47  ar  
 56  47  48  1   
 57  49  50  1   
 58  49  63  1   
 59  50  51  2   
 60  50  52  2   
 61  50  53  1   
 62  53  54  ar  
 63  53  61  ar  
 64  54  55  1   
 65  54  56  ar  
 66  56  57  1   
 67  56  58  ar  
 68  58  59  1   
 69  58  60  ar  
 70  60  61  ar  
 71  61  62  1   
 72  63  64  1   
 73  65  66  1   
 74  65  67  ar  
 75  67  68  1   
 76  69  70  1   
 77  69  71  1   
@<TRIPOS>SUBSTRUCTURE
  1 LIG  65 GROUP 4 **** **** 0
@<TRIPOS>PROPERTY_DATA
index	|	ligand307
Name	|	MAK-UNK-702-14
ChemPlp	|	-105.094
MM-GBSA Nwat=0	|	28.5915
STDEV0	|	4.2281
MM-GBSA Nwat=30	|	114.069
STDEV30	|	14.9245
MM-GBSA Nwat=60	|	86.9484
STDEV60	|	14.9046
ST.DEV < 10%	|	N
RMSD LIG < 2	|	
DIST < 5	|	
DIST < 3.5	|	N

# MOE 2019.01 (io_trps.svl 2018.10)

@<TRIPOS>MOLECULE
ligand393
104 111 1 0 0 
SMALL
NO_CHARGES


@<TRIPOS>ATOM
  1 O1      -2.8860    -1.1410    23.0060 O.2   1 LIG   0.0000 
  2 C2      -2.3230    -1.0090    21.9550 C.2   1 LIG   0.0000 
  3 C3      -1.9610    -2.2320    21.1280 C.3   1 LIG   0.0000 
  4 H4      -0.9670    -2.3300    21.0940 H     1 LIG   0.0000 
  5 H5      -2.3630    -3.0470    21.5450 H     1 LIG   0.0000 
  6 CL6     -2.5940    -2.0380    19.4750 Cl    1 LIG   0.0000 
  7 N7      -1.9990     0.2700    21.4910 N.am  1 LIG   0.0000 
  8 C8      -2.3590     1.4410    22.3080 C.3   1 LIG   0.0000 
  9 H9      -2.3920     1.1660    23.2690 H     1 LIG   0.0000 
 10 H10     -3.2600     1.7690    22.0240 H     1 LIG   0.0000 
 11 C11     -1.3510     2.5710    22.1540 C.3   1 LIG   0.0000 
 12 H12     -1.7530     3.4120    22.5160 H     1 LIG   0.0000 
 13 H13     -0.5300     2.3420    22.6760 H     1 LIG   0.0000 
 14 N14     -0.9720     2.7950    20.7480 N.am  1 LIG   0.0000 
 15 S15      0.2470     4.0630    20.7470 S.o2  1 LIG   0.0000 
 16 O16      0.1120     4.8610    21.9380 O.2   1 LIG   0.0000 
 17 O17      0.0700     4.8990    19.5880 O.2   1 LIG   0.0000 
 18 C18      1.8310     3.3450    20.7060 C.2   1 LIG   0.0000 
 19 C19      2.7420     3.2730    21.7190 C.2   1 LIG   0.0000 
 20 H20      2.5840     3.6470    22.6330 H     1 LIG   0.0000 
 21 C21      3.9380     2.6100    21.3390 C.2   1 LIG   0.0000 
 22 H22      4.6990     2.4770    21.9750 H     1 LIG   0.0000 
 23 C23      3.9830     2.1670    20.0490 C.2   1 LIG   0.0000 
 24 C24      5.1320     1.4360    19.3750 C.3   1 LIG   0.0000 
 25 H25      4.9940     1.4400    18.3850 H     1 LIG   0.0000 
 26 H26      5.9930     1.8940    19.5940 H     1 LIG   0.0000 
 27 N27      5.1790     0.0460    19.8590 N.3   1 LIG   0.0000 
 28 C28      6.0220    -0.8000    19.0010 C.3   1 LIG   0.0000 
 29 H29      6.9570    -0.4470    19.0070 H     1 LIG   0.0000 
 30 H30      5.6640    -0.7820    18.0670 H     1 LIG   0.0000 
 31 C31      6.0260    -2.2340    19.5070 C.3   1 LIG   0.0000 
 32 H32      5.0980    -2.6030    19.4590 H     1 LIG   0.0000 
 33 H33      6.6330    -2.7840    18.9340 H     1 LIG   0.0000 
 34 N34      6.4960    -2.2840    20.8990 N.am  1 LIG   0.0000 
 35 S35      6.5340    -3.9520    21.4730 S.o2  1 LIG   0.0000 
 36 O36      5.2180    -4.3380    21.9120 O.2   1 LIG   0.0000 
 37 O37      6.9560    -4.8180    20.4030 O.2   1 LIG   0.0000 
 38 C38      7.6500    -4.0830    22.8010 C.ar  1 LIG   0.0000 
 39 C39      7.4230    -5.0890    23.7350 C.ar  1 LIG   0.0000 
 40 H40      6.6420    -5.7050    23.6340 H     1 LIG   0.0000 
 41 C41      8.2920    -5.2280    24.8120 C.ar  1 LIG   0.0000 
 42 H42      8.1300    -5.9510    25.4840 H     1 LIG   0.0000 
 43 C43      9.3840    -4.3800    24.9700 C.ar  1 LIG   0.0000 
 44 H44     10.0020    -4.4900    25.7480 H     1 LIG   0.0000 
 45 C45      9.6040    -3.3770    24.0320 C.ar  1 LIG   0.0000 
 46 C46     10.6990    -2.5350    24.2020 C.ar  1 LIG   0.0000 
 47 H47     11.3120    -2.6530    24.9830 H     1 LIG   0.0000 
 48 C48     10.9310    -1.5280    23.2700 C.ar  1 LIG   0.0000 
 49 C49     12.1280    -0.6090    23.4570 C.3   1 LIG   0.0000 
 50 H50     12.5040    -0.7350    24.3750 H     1 LIG   0.0000 
 51 H51     12.8270    -0.8300    22.7770 H     1 LIG   0.0000 
 52 N52     11.7040     0.7870    23.2890 N.3   1 LIG   0.0000 
 53 C53     10.8310     1.1080    24.4280 C.3   1 LIG   0.0000 
 54 H54     11.3380     0.9620    25.2770 H     1 LIG   0.0000 
 55 H55     10.0340     0.5040    24.4080 H     1 LIG   0.0000 
 56 C56     10.3550     2.5530    24.3800 C.3   1 LIG   0.0000 
 57 H57      9.6530     2.6400    23.6730 H     1 LIG   0.0000 
 58 H58      9.9650     2.7960    25.2690 H     1 LIG   0.0000 
 59 N59     11.4600     3.4750    24.0740 N.pl3 1 LIG   0.0000 
 60 C60     11.4400     4.7650    24.6150 C.2   1 LIG   0.0000 
 61 C61     12.3750     5.7400    24.4560 C.2   1 LIG   0.0000 
 62 H62     13.2000     5.6030    23.9080 H     1 LIG   0.0000 
 63 C63     12.1000     6.9670    25.1190 C.2   1 LIG   0.0000 
 64 H64     12.7040     7.7630    25.0820 H     1 LIG   0.0000 
 65 C65     10.9260     6.9440    25.8110 C.2   1 LIG   0.0000 
 66 CL66    10.1920     8.2440    26.7800 Cl    1 LIG   0.0000 
 67 S67     10.2180     5.4090    25.6040 S.3   1 LIG   0.0000 
 68 C68     12.5990     3.0940    23.2240 C.3   1 LIG   0.0000 
 69 H69     13.4010     3.6280    23.4940 H     1 LIG   0.0000 
 70 H70     12.3740     3.2900    22.2700 H     1 LIG   0.0000 
 71 C71     12.9190     1.6130    23.3640 C.3   1 LIG   0.0000 
 72 H72     13.5410     1.3440    22.6290 H     1 LIG   0.0000 
 73 H73     13.3620     1.4580    24.2480 H     1 LIG   0.0000 
 74 C74     10.0850    -1.3560    22.1800 C.ar  1 LIG   0.0000 
 75 C75     10.3160    -0.2640    21.1480 C.3   1 LIG   0.0000 
 76 H76     10.7710    -0.6520    20.3470 H     1 LIG   0.0000 
 77 H77     10.8910     0.4530    21.5430 H     1 LIG   0.0000 
 78 C78      8.9800     0.3310    20.7320 C.3   1 LIG   0.0000 
 79 H79      9.1130     0.9320    19.9440 H     1 LIG   0.0000 
 80 H80      8.3500    -0.4060    20.4860 H     1 LIG   0.0000 
 81 C81      8.3990     1.1300    21.8870 C.2   1 LIG   0.0000 
 82 C82      8.0330     0.6050    23.1560 C.2   1 LIG   0.0000 
 83 H83      8.1400    -0.3640    23.3770 H     1 LIG   0.0000 
 84 C84      7.5280     1.4970    24.0530 C.2   1 LIG   0.0000 
 85 H85      7.2140     1.3160    24.9850 H     1 LIG   0.0000 
 86 S86      7.5510     2.9910    23.2300 S.3   1 LIG   0.0000 
 87 C87      8.2010     2.4710    21.7450 C.2   1 LIG   0.0000 
 88 H88      8.3960     3.0310    20.9400 H     1 LIG   0.0000 
 89 C89      9.0000    -2.2110    22.0350 C.ar  1 LIG   0.0000 
 90 H90      8.3880    -2.0920    21.2530 H     1 LIG   0.0000 
 91 C91      8.7410    -3.2270    22.9500 C.ar  1 LIG   0.0000 
 92 C92      5.6490    -1.4420    21.7560 C.3   1 LIG   0.0000 
 93 H93      6.0040    -1.4620    22.6910 H     1 LIG   0.0000 
 94 H94      4.7140    -1.7980    21.7470 H     1 LIG   0.0000 
 95 C95      5.6440    -0.0080    21.2530 C.3   1 LIG   0.0000 
 96 H96      5.0330     0.5400    21.8250 H     1 LIG   0.0000 
 97 H97      6.5710     0.3630    21.3060 H     1 LIG   0.0000 
 98 S98      2.4960     2.5930    19.3350 S.3   1 LIG   0.0000 
 99 C99     -0.3500     1.5810    20.1960 C.3   1 LIG   0.0000 
100 H100     0.4540     1.3530    20.7460 H     1 LIG   0.0000 
101 H101    -0.0680     1.7640    19.2540 H     1 LIG   0.0000 
102 C102    -1.3000     0.3920    20.2010 C.3   1 LIG   0.0000 
103 H103    -1.9760     0.5120    19.4740 H     1 LIG   0.0000 
104 H104    -0.7760    -0.4440    20.0340 H     1 LIG   0.0000 
@<TRIPOS>BOND
  1   1   2  2   
  2   2   3  1   
  3   2   7  am  
  4   3   4  1   
  5   3   5  1   
  6   3   6  1   
  7   7   8  1   
  8   7 102  1   
  9   8   9  1   
 10   8  10  1   
 11   8  11  1   
 12  11  12  1   
 13  11  13  1   
 14  11  14  1   
 15  14  15  am  
 16  14  99  1   
 17  15  16  2   
 18  15  17  2   
 19  15  18  1   
 20  18  19  2   
 21  18  98  1   
 22  19  20  1   
 23  19  21  1   
 24  21  22  1   
 25  21  23  2   
 26  23  24  1   
 27  23  98  1   
 28  24  25  1   
 29  24  26  1   
 30  24  27  1   
 31  27  28  1   
 32  27  95  1   
 33  28  29  1   
 34  28  30  1   
 35  28  31  1   
 36  31  32  1   
 37  31  33  1   
 38  31  34  1   
 39  34  35  am  
 40  34  92  1   
 41  35  36  2   
 42  35  37  2   
 43  35  38  1   
 44  38  39  ar  
 45  38  91  ar  
 46  39  40  1   
 47  39  41  ar  
 48  41  42  1   
 49  41  43  ar  
 50  43  44  1   
 51  43  45  ar  
 52  45  46  ar  
 53  45  91  ar  
 54  46  47  1   
 55  46  48  ar  
 56  48  49  1   
 57  48  74  ar  
 58  49  50  1   
 59  49  51  1   
 60  49  52  1   
 61  52  53  1   
 62  52  71  1   
 63  53  54  1   
 64  53  55  1   
 65  53  56  1   
 66  56  57  1   
 67  56  58  1   
 68  56  59  1   
 69  59  60  1   
 70  59  68  1   
 71  60  61  2   
 72  60  67  1   
 73  61  62  1   
 74  61  63  1   
 75  63  64  1   
 76  63  65  2   
 77  65  66  1   
 78  65  67  1   
 79  68  69  1   
 80  68  70  1   
 81  68  71  1   
 82  71  72  1   
 83  71  73  1   
 84  74  75  1   
 85  74  89  ar  
 86  75  76  1   
 87  75  77  1   
 88  75  78  1   
 89  78  79  1   
 90  78  80  1   
 91  78  81  1   
 92  81  82  1   
 93  81  87  2   
 94  82  83  1   
 95  82  84  2   
 96  84  85  1   
 97  84  86  1   
 98  86  87  1   
 99  87  88  1   
100  89  90  1   
101  89  91  ar  
102  92  93  1   
103  92  94  1   
104  92  95  1   
105  95  96  1   
106  95  97  1   
107  99 100  1   
108  99 101  1   
109  99 102  1   
110 102 103  1   
111 102 104  1   
@<TRIPOS>SUBSTRUCTURE
  1 LIG  95 GROUP 4 **** **** 0
@<TRIPOS>PROPERTY_DATA
index	|	ligand393
Name	|	MAK-UNK-e05-5
ChemPlp	|	-118.648
MM-GBSA Nwat=0	|	54.3473
STDEV0	|	4.8459
MM-GBSA Nwat=30	|	119.995
STDEV30	|	20.0426
MM-GBSA Nwat=60	|	77.4872
STDEV60	|	18.57
ST.DEV < 10%	|	N
RMSD LIG < 2	|	
DIST < 5	|	
DIST < 3.5	|	N

# MOE 2019.01 (io_trps.svl 2018.10)

@<TRIPOS>MOLECULE
ligand395
109 116 1 0 0 
SMALL
USER_CHARGES


@<TRIPOS>ATOM
  1 O1      -2.1780    -2.3180    19.3010 O.2   1 LIG   0.0000 
  2 C2      -2.1900    -1.6440    20.2940 C.2   1 LIG   0.0000 
  3 C3      -1.9700    -0.1440    20.1960 C.3   1 LIG   0.0000 
  4 CL6     -3.5290     0.6660    19.9070 Cl    1 LIG   0.0000 
  5 N7      -2.4040    -2.2400    21.5410 N.am  1 LIG   0.0000 
  6 C8      -2.6150    -3.6960    21.6120 C.3   1 LIG   0.0000 
  7 C11     -2.0660    -4.2850    22.9040 C.3   1 LIG   0.0000 
  8 N14     -2.4150    -3.4740    24.0820 N.am  1 LIG   0.0000 
  9 S15     -1.6450    -4.2350    25.4700 S.o2  1 LIG   0.0000 
 10 O16     -1.3430    -5.6080    25.1570 O.2   1 LIG   0.0000 
 11 O17     -2.5360    -4.1850    26.6000 O.2   1 LIG   0.0000 
 12 C18     -0.1740    -3.3900    25.8520 C.2   1 LIG   0.0000 
 13 C19     -0.0420    -2.1510    26.4100 C.2   1 LIG   0.0000 
 14 C21      1.3130    -1.7680    26.5890 C.2   1 LIG   0.0000 
 15 C23      2.2430    -2.6790    26.1790 C.2   1 LIG   0.0000 
 16 C24      3.7530    -2.5330    26.2460 C.3   1 LIG   0.0000 
 17 N27      4.3100    -2.5520    24.8800 N.4   1 LIG   1.0000 
 18 C28      5.7530    -2.2720    24.9080 C.3   1 LIG   0.0000 
 19 C31      6.3200    -2.2620    23.4980 C.3   1 LIG   0.0000 
 20 N34      6.0570    -3.5440    22.8280 N.am  1 LIG   0.0000 
 21 S35      6.7260    -3.5700    21.1980 S.o2  1 LIG   0.0000 
 22 O36      7.9750    -4.2860    21.2020 O.2   1 LIG   0.0000 
 23 O37      5.8000    -4.2240    20.3090 O.2   1 LIG   0.0000 
 24 C38      6.9950    -1.9380    20.6560 C.ar  1 LIG   0.0000 
 25 C39      6.0430    -1.3760    19.8110 C.ar  1 LIG   0.0000 
 26 C41      6.2200    -0.0730    19.3560 C.ar  1 LIG   0.0000 
 27 C43      7.3310     0.6750    19.7300 C.ar  1 LIG   0.0000 
 28 C45      8.2790     0.1060    20.5750 C.ar  1 LIG   0.0000 
 29 C46      9.3850     0.8650    20.9420 C.ar  1 LIG   0.0000 
 30 C48     10.3400     0.3070    21.7860 C.ar  1 LIG   0.0000 
 31 C49     11.5490     1.1380    22.1870 C.3   1 LIG   0.0000 
 32 N52     11.0980     2.4340    22.7280 N.4   1 LIG   1.0000 
 33 C53     10.3680     2.2380    23.9890 C.3   1 LIG   0.0000 
 34 C56      9.8760     3.5720    24.5310 C.3   1 LIG   0.0000 
 35 N59     11.0040     4.4950    24.7250 N.am  1 LIG   0.0000 
 36 S60     10.4660     6.0410    25.3760 S.o2  1 LIG   0.0000 
 37 O61      9.9990     5.8580    26.7260 O.2   1 LIG   0.0000 
 38 O62     11.5640     6.9730    25.3700 O.2   1 LIG   0.0000 
 39 C63      9.1700     6.6660    24.3930 C.2   1 LIG   0.0000 
 40 C64      8.2680     7.6310    24.7360 C.2   1 LIG   0.0000 
 41 C66      7.3060     7.9530    23.7350 C.2   1 LIG   0.0000 
 42 C68      7.4540     7.2210    22.5920 C.2   1 LIG   0.0000 
 43 CL69     6.4860     7.2900    21.0960 Cl    1 LIG   0.0000 
 44 S70      8.7760     6.1740    22.8120 S.3   1 LIG   0.0000 
 45 C71     11.7380     4.6870    23.4660 C.3   1 LIG   0.0000 
 46 C74     12.2280     3.3530    22.9270 C.3   1 LIG   0.0000 
 47 C77     10.2000    -0.9920    22.2640 C.ar  1 LIG   0.0000 
 48 C78     11.2280    -1.6240    23.1880 C.3   1 LIG   0.0000 
 49 C81     10.6070    -2.8200    23.8930 C.3   1 LIG   0.0000 
 50 C84      9.6950    -2.3330    25.0080 C.2   1 LIG   0.0000 
 51 C85      9.4080    -0.9750    25.3090 C.2   1 LIG   0.0000 
 52 C87      8.5620    -0.7560    26.3540 C.2   1 LIG   0.0000 
 53 S89      8.1560    -2.3170    26.9100 S.3   1 LIG   0.0000 
 54 C90      9.0690    -3.2400    25.8100 C.2   1 LIG   0.0000 
 55 C92      9.0840    -1.7270    21.8820 C.ar  1 LIG   0.0000 
 56 C94      8.1120    -1.1970    21.0370 C.ar  1 LIG   0.0000 
 57 C95      4.6140    -3.8280    22.8030 C.3   1 LIG   0.0000 
 58 C98      4.0500    -3.8380    24.2150 C.3   1 LIG   0.0000 
 59 S101     1.3800    -4.0190    25.5760 S.3   1 LIG   0.0000 
 60 C102    -1.8490    -2.1220    23.9480 C.3   1 LIG   0.0000 
 61 C105    -2.4020    -1.3830    22.7380 C.3   1 LIG   0.0000 
 62 H19     -0.8180    -1.5750    26.6660 H     1 LIG   0.0000 
 63 H21      1.5690    -0.8890    26.9900 H     1 LIG   0.0000 
 64 H39      5.2390    -1.9030    19.5340 H     1 LIG   0.0000 
 65 H41      5.5360     0.3320    18.7480 H     1 LIG   0.0000 
 66 H43      7.4480     1.6100    19.3960 H     1 LIG   0.0000 
 67 H46      9.4930     1.7990    20.6030 H     1 LIG   0.0000 
 68 H92      8.9770    -2.6610    22.2220 H     1 LIG   0.0000 
 69 H64      8.2810     8.0810    25.6280 H     1 LIG   0.0000 
 70 H66      6.5950     8.6460    23.8570 H     1 LIG   0.0000 
 71 H85      9.8050    -0.2220    24.7840 H     1 LIG   0.0000 
 72 H87      8.2490     0.1230    26.7140 H     1 LIG   0.0000 
 73 H90      9.1340    -4.2370    25.7620 H     1 LIG   0.0000 
 74 H31     -1.5740     0.1920    21.0510 H     1 LIG   0.0000 
 75 H32     -1.3470     0.0540    19.4400 H     1 LIG   0.0000 
 76 H81     -2.1520    -4.1270    20.8380 H     1 LIG   0.0000 
 77 H82     -3.5960    -3.8840    21.5620 H     1 LIG   0.0000 
 78 H111    -2.4420    -5.2040    23.0230 H     1 LIG   0.0000 
 79 H112    -1.0700    -4.3390    22.8340 H     1 LIG   0.0000 
 80 H241     3.9850    -1.6660    26.6880 H     1 LIG   0.0000 
 81 H242     4.1380    -3.2900    26.7730 H     1 LIG   0.0000 
 82 H27      3.8620    -1.8320    24.3500 H     1 LIG   0.0000 
 83 H281     6.2150    -2.9800    25.4440 H     1 LIG   0.0000 
 84 H282     5.9070    -1.3800    25.3320 H     1 LIG   0.0000 
 85 H311     5.8920    -1.5240    22.9760 H     1 LIG   0.0000 
 86 H312     7.3080    -2.1100    23.5410 H     1 LIG   0.0000 
 87 H491    12.0730     0.6490    22.8840 H     1 LIG   0.0000 
 88 H492    12.1260     1.2940    21.3850 H     1 LIG   0.0000 
 89 H52     10.4730     2.8470    22.0660 H     1 LIG   0.0000 
 90 H531    10.9770     1.8150    24.6600 H     1 LIG   0.0000 
 91 H532     9.5830     1.6400    23.8260 H     1 LIG   0.0000 
 92 H561     9.2310     3.9730    23.8810 H     1 LIG   0.0000 
 93 H562     9.4180     3.4220    25.4070 H     1 LIG   0.0000 
 94 H711    12.5220     5.2850    23.6300 H     1 LIG   0.0000 
 95 H712    11.1310     5.1110    22.7930 H     1 LIG   0.0000 
 96 H741    12.6910     3.5000    22.0530 H     1 LIG   0.0000 
 97 H742    12.8700     2.9500    23.5800 H     1 LIG   0.0000 
 98 H781    11.5230    -0.9530    23.8670 H     1 LIG   0.0000 
 99 H782    12.0160    -1.9260    22.6520 H     1 LIG   0.0000 
100 H811    10.0760    -3.3550    23.2370 H     1 LIG   0.0000 
101 H812    11.3310    -3.3910    24.2800 H     1 LIG   0.0000 
102 H951     4.4610    -4.7210    22.3810 H     1 LIG   0.0000 
103 H952     4.1500    -3.1220    22.2680 H     1 LIG   0.0000 
104 H981     3.0630    -3.9950    24.1740 H     1 LIG   0.0000 
105 H982     4.4830    -4.5730    24.7370 H     1 LIG   0.0000 
106 H102    -0.8560    -2.1970    23.8530 H     1 LIG   0.0000 
107 H102    -2.0660    -1.5980    24.7720 H     1 LIG   0.0000 
108 H105    -3.3390    -1.0930    22.9330 H     1 LIG   0.0000 
109 H105    -1.8340    -0.5780    22.5610 H     1 LIG   0.0000 
@<TRIPOS>BOND
  1   1   2  2   
  2   2   3  1   
  3   2   5  am  
  4   3   4  1   
  5   3  74  1   
  6   3  75  1   
  7   5   6  1   
  8   5  61  1   
  9   6   7  1   
 10   6  76  1   
 11   6  77  1   
 12   7   8  1   
 13   7  78  1   
 14   7  79  1   
 15   8   9  am  
 16   8  60  1   
 17   9  10  2   
 18   9  11  2   
 19   9  12  1   
 20  12  13  2   
 21  12  59  1   
 22  13  14  1   
 23  13  62  1   
 24  14  15  2   
 25  14  63  1   
 26  15  16  1   
 27  15  59  1   
 28  16  17  1   
 29  16  80  1   
 30  16  81  1   
 31  17  18  1   
 32  17  58  1   
 33  17  82  1   
 34  18  19  1   
 35  18  83  1   
 36  18  84  1   
 37  19  20  1   
 38  19  85  1   
 39  19  86  1   
 40  20  21  am  
 41  20  57  1   
 42  21  22  2   
 43  21  23  2   
 44  21  24  1   
 45  24  25  ar  
 46  24  56  ar  
 47  25  26  ar  
 48  25  64  1   
 49  26  27  ar  
 50  26  65  1   
 51  27  28  ar  
 52  27  66  1   
 53  28  29  ar  
 54  28  56  ar  
 55  29  30  ar  
 56  29  67  1   
 57  30  31  1   
 58  30  47  ar  
 59  31  32  1   
 60  31  87  1   
 61  31  88  1   
 62  32  33  1   
 63  32  46  1   
 64  32  89  1   
 65  33  34  1   
 66  33  90  1   
 67  33  91  1   
 68  34  35  1   
 69  34  92  1   
 70  34  93  1   
 71  35  36  am  
 72  35  45  1   
 73  36  37  2   
 74  36  38  2   
 75  36  39  1   
 76  39  40  2   
 77  39  44  1   
 78  40  41  1   
 79  40  69  1   
 80  41  42  2   
 81  41  70  1   
 82  42  43  1   
 83  42  44  1   
 84  45  46  1   
 85  45  94  1   
 86  45  95  1   
 87  46  96  1   
 88  46  97  1   
 89  47  48  1   
 90  47  55  ar  
 91  48  49  1   
 92  48  98  1   
 93  48  99  1   
 94  49  50  1   
 95  49 100  1   
 96  49 101  1   
 97  50  51  1   
 98  50  54  2   
 99  51  52  2   
100  51  71  1   
101  52  53  1   
102  52  72  1   
103  53  54  1   
104  54  73  1   
105  55  56  ar  
106  55  68  1   
107  57  58  1   
108  57 102  1   
109  57 103  1   
110  58 104  1   
111  58 105  1   
112  60  61  1   
113  60 106  1   
114  60 107  1   
115  61 108  1   
116  61 109  1   
@<TRIPOS>SUBSTRUCTURE
  1 LIG  19 GROUP 4 **** **** 0
@<TRIPOS>PROPERTY_DATA
index	|	ligand395
Name	|	MAK-UNK-e05-7
ChemPlp	|	-119.706
MM-GBSA Nwat=0	|	110.021
STDEV0	|	12.831
MM-GBSA Nwat=30	|	177.412
STDEV30	|	17.836
MM-GBSA Nwat=60	|	116.964
STDEV60	|	19.3831
ST.DEV < 10%	|	N
RMSD LIG < 2	|	
DIST < 5	|	
DIST < 3.5	|	N

# MOE 2019.01 (io_trps.svl 2018.10)

@<TRIPOS>MOLECULE
ligand386
56 57 1 0 0 
SMALL
NO_CHARGES


@<TRIPOS>ATOM
  1 C1       6.1140    -5.6340    20.1870 C.3   1 LIG   0.0000 
  2 H2       6.7190    -6.3960    20.4160 H     1 LIG   0.0000 
  3 H3       5.1760    -5.9690    20.0920 H     1 LIG   0.0000 
  4 H4       6.4090    -5.2200    19.3260 H     1 LIG   0.0000 
  5 C5       6.1690    -4.5940    21.2940 C.2   1 LIG   0.0000 
  6 O6       5.5100    -3.5940    21.2110 O.2   1 LIG   0.0000 
  7 N7       6.9710    -4.7970    22.3860 N.am  1 LIG   0.0000 
  8 H8       7.5200    -5.6300    22.4550 H     1 LIG   0.0000 
  9 C9       7.0240    -3.7910    23.4560 C.3   1 LIG   0.0000 
 10 C10      5.6170    -3.5090    23.9580 C.3   1 LIG   0.0000 
 11 H11      5.6620    -2.9220    24.7660 H     1 LIG   0.0000 
 12 H12      5.0930    -3.0490    23.2400 H     1 LIG   0.0000 
 13 C13      4.9360    -4.8190    24.3200 C.ar  1 LIG   0.0000 
 14 C14      3.9980    -5.3660    23.4520 C.ar  1 LIG   0.0000 
 15 H15      3.7740    -4.9010    22.5960 H     1 LIG   0.0000 
 16 C16      3.3740    -6.5650    23.7790 C.ar  1 LIG   0.0000 
 17 H17      2.6980    -6.9660    23.1610 H     1 LIG   0.0000 
 18 C18      3.6960    -7.2020    24.9730 C.ar  1 LIG   0.0000 
 19 O19      3.0920    -8.3660    25.2950 O.3   1 LIG   0.0000 
 20 H20      3.1240    -8.7020    26.2360 H     1 LIG   0.0000 
 21 C21      4.6340    -6.6590    25.8460 C.ar  1 LIG   0.0000 
 22 H22      4.8580    -7.1240    26.7020 H     1 LIG   0.0000 
 23 C23      5.2550    -5.4600    25.5130 C.ar  1 LIG   0.0000 
 24 H24      5.9320    -5.0590    26.1310 H     1 LIG   0.0000 
 25 C25      7.8740    -4.3140    24.6020 C.2   1 LIG   0.0000 
 26 O26      8.5060    -5.3260    24.4670 O.2   1 LIG   0.0000 
 27 N27      7.9200    -3.6320    25.7890 N.am  1 LIG   0.0000 
 28 H28      7.3940    -2.7880    25.9020 H     1 LIG   0.0000 
 29 C29      8.7430    -4.1380    26.8970 C.3   1 LIG   0.0000 
 30 H30      9.1280    -3.3680    27.4050 H     1 LIG   0.0000 
 31 H31      9.4840    -4.7010    26.5320 H     1 LIG   0.0000 
 32 C32      7.8800    -4.9770    27.8260 C.1   1 LIG   0.0000 
 33 C33      7.2050    -5.6340    28.5530 C.1   1 LIG   0.0000 
 34 BR34     6.0930    -6.7160    29.7510 Br    1 LIG   0.0000 
 35 S35      7.7520    -2.2640    22.8130 S.o2  1 LIG   0.0000 
 36 O36      6.7940    -1.5900    21.9760 O.2   1 LIG   0.0000 
 37 O37      8.1180    -1.4070    23.9110 O.2   1 LIG   0.0000 
 38 N38      9.0800    -2.6220    21.9380 N.am  1 LIG   0.0000 
 39 H39      8.8780    -2.5110    20.9650 H     1 LIG   0.0000 
 40 C40     10.1760    -1.7180    22.3180 C.3   1 LIG   0.0000 
 41 H41     11.0110    -1.9860    21.8370 H     1 LIG   0.0000 
 42 H42     10.3260    -1.7730    23.3050 H     1 LIG   0.0000 
 43 C43      9.8090    -0.2920    21.9400 C.3   1 LIG   0.0000 
 44 H44      9.8000    -0.2030    20.9440 H     1 LIG   0.0000 
 45 H45      8.9030    -0.0730    22.3020 H     1 LIG   0.0000 
 46 C46     10.8340     0.6670    22.5250 C.ar  1 LIG   0.0000 
 47 C47     11.6860     0.2320    23.5350 C.ar  1 LIG   0.0000 
 48 H48     11.6270    -0.7070    23.8750 H     1 LIG   0.0000 
 49 C49     12.6220     1.1120    24.0680 C.ar  1 LIG   0.0000 
 50 H50     13.2380     0.8080    24.7950 H     1 LIG   0.0000 
 51 C51     12.7010     2.4160    23.5910 C.ar  1 LIG   0.0000 
 52 H52     13.3740     3.0490    23.9740 H     1 LIG   0.0000 
 53 C53     11.8450     2.8390    22.5810 C.ar  1 LIG   0.0000 
 54 H54     11.9060     3.7780    22.2410 H     1 LIG   0.0000 
 55 C55     10.9050     1.9690    22.0400 C.ar  1 LIG   0.0000 
 56 H56     10.2890     2.2740    21.3140 H     1 LIG   0.0000 
@<TRIPOS>BOND
  1   1   2  1   
  2   1   3  1   
  3   1   4  1   
  4   1   5  1   
  5   5   6  2   
  6   5   7  am  
  7   7   8  1   
  8   7   9  1   
  9   9  10  1   
 10   9  25  1   
 11   9  35  1   
 12  10  11  1   
 13  10  12  1   
 14  10  13  1   
 15  13  14  ar  
 16  13  23  ar  
 17  14  15  1   
 18  14  16  ar  
 19  16  17  1   
 20  16  18  ar  
 21  18  19  1   
 22  18  21  ar  
 23  19  20  1   
 24  21  22  1   
 25  21  23  ar  
 26  23  24  1   
 27  25  26  2   
 28  25  27  am  
 29  27  28  1   
 30  27  29  1   
 31  29  30  1   
 32  29  31  1   
 33  29  32  1   
 34  32  33  3   
 35  33  34  1   
 36  35  36  2   
 37  35  37  2   
 38  35  38  am  
 39  38  39  1   
 40  38  40  1   
 41  40  41  1   
 42  40  42  1   
 43  40  43  1   
 44  43  44  1   
 45  43  45  1   
 46  43  46  1   
 47  46  47  ar  
 48  46  55  ar  
 49  47  48  1   
 50  47  49  ar  
 51  49  50  1   
 52  49  51  ar  
 53  51  52  1   
 54  51  53  ar  
 55  53  54  1   
 56  53  55  ar  
 57  55  56  1   
@<TRIPOS>SUBSTRUCTURE
  1 LIG   9 GROUP 4 **** **** 0
@<TRIPOS>PROPERTY_DATA
index	|	ligand386
Name	|	MAK-UNK-c44-6
ChemPlp	|	-99.1749
MM-GBSA Nwat=0	|	100.239
STDEV0	|	54.537
MM-GBSA Nwat=30	|	235.701
STDEV30	|	52.2491
MM-GBSA Nwat=60	|	128.011
STDEV60	|	22.8565
ST.DEV < 10%	|	N
RMSD LIG < 2	|	
DIST < 5	|	
DIST < 3.5	|	N

# MOE 2019.01 (io_trps.svl 2018.10)

@<TRIPOS>MOLECULE
ligand165
74 77 1 0 0 
SMALL
NO_CHARGES


@<TRIPOS>ATOM
  1 C1      10.6160     6.6220    26.3570 C.3   1 LIG   0.0000 
  2 C5      12.0200     6.4650    25.7970 C.3   1 LIG   0.0000 
  3 N6      12.7020     7.7680    25.8080 N.3   1 LIG   0.0000 
  4 N9      11.9430     5.9640    24.4170 N.3   1 LIG   0.0000 
  5 C11     12.6000     4.6520    24.3340 C.3   1 LIG   0.0000 
  6 C12     13.8330     4.7570    23.4510 C.3   1 LIG   0.0000 
  7 C15     13.4760     5.4890    22.1680 C.2   1 LIG   0.0000 
  8 N16     12.7000     4.8740    21.2210 N.am  1 LIG   0.0000 
  9 O19     13.8730     6.6070    21.9840 O.2   1 LIG   0.0000 
 10 C20     11.6360     3.6390    23.7400 C.2   1 LIG   0.0000 
 11 O21     10.6180     4.0100    23.2240 O.2   1 LIG   0.0000 
 12 N22     11.9280     2.3010    23.7930 N.am  1 LIG   0.0000 
 13 C24     10.9950     1.3220    23.2180 C.3   1 LIG   0.0000 
 14 C25      9.8290     1.1630    24.1830 C.3   1 LIG   0.0000 
 15 C28      8.8720     0.0760    23.7190 C.3   1 LIG   0.0000 
 16 C31      9.6280    -1.2450    23.7430 C.3   1 LIG   0.0000 
 17 C32      8.7280    -2.3770    23.2830 C.2   1 LIG   0.0000 
 18 N33      8.0680    -3.2380    24.0250 N.2   1 LIG   0.0000 
 19 C34      7.3210    -4.1780    23.3500 C.ar  1 LIG   0.0000 
 20 C35      6.5060    -5.2260    23.7610 C.ar  1 LIG   0.0000 
 21 C36      6.3090    -5.5080    25.1690 C.ar  1 LIG   0.0000 
 22 C37      7.2350    -5.0400    26.0970 C.ar  1 LIG   0.0000 
 23 C39      7.0440    -5.3120    27.4480 C.ar  1 LIG   0.0000 
 24 C41      5.9360    -6.0450    27.8600 C.ar  1 LIG   0.0000 
 25 S42      5.6980    -6.3850    29.5490 S.o2  1 LIG   0.0000 
 26 N43      4.1180    -6.2210    29.9180 N.am  1 LIG   0.0000 
 27 O46      6.1190    -7.7330    29.8310 O.2   1 LIG   0.0000 
 28 O47      6.4730    -5.4640    30.3380 O.2   1 LIG   0.0000 
 29 C48      5.0180    -6.5080    26.9230 C.ar  1 LIG   0.0000 
 30 O49      3.9420    -7.2210    27.3250 O.3   1 LIG   0.0000 
 31 C51      5.1980    -6.2420    25.5700 C.ar  1 LIG   0.0000 
 32 C53      5.8500    -6.0440    22.8470 C.ar  1 LIG   0.0000 
 33 C55      5.9850    -5.8410    21.4760 C.ar  1 LIG   0.0000 
 34 C57      6.7790    -4.8140    20.9980 C.ar  1 LIG   0.0000 
 35 C59      7.3920    -4.0540    21.9790 C.ar  1 LIG   0.0000 
 36 S60      8.4150    -2.7410    21.6530 S.3   1 LIG   0.0000 
 37 C61     10.8570    -1.2310    22.8420 C.3   1 LIG   0.0000 
 38 N64     11.6280     0.0180    22.9560 N.am  1 LIG   0.0000 
 39 C65     13.0200    -0.0370    22.8080 C.2   1 LIG   0.0000 
 40 O66     13.6730     0.9660    22.8950 O.2   1 LIG   0.0000 
 41 C67     13.7030    -1.3670    22.5360 C.3   1 LIG   0.0000 
 42 CL70    13.9010    -1.5860    20.7810 Cl    1 LIG   0.0000 
 43 H53      5.2720    -6.7900    23.1790 H     1 LIG   0.0000 
 44 H55      5.5060    -6.4400    20.8350 H     1 LIG   0.0000 
 45 H57      6.9000    -4.6340    20.0220 H     1 LIG   0.0000 
 46 H37      8.0300    -4.5130    25.7950 H     1 LIG   0.0000 
 47 H39      7.7030    -4.9800    28.1220 H     1 LIG   0.0000 
 48 H51      4.5390    -6.5740    24.8950 H     1 LIG   0.0000 
 49 H11     10.6680     6.9630    27.2960 H     1 LIG   0.0000 
 50 H12     10.1040     7.2720    25.7950 H     1 LIG   0.0000 
 51 H13     10.1530     5.7360    26.3500 H     1 LIG   0.0000 
 52 H5      12.5330     5.8160    26.3590 H     1 LIG   0.0000 
 53 H11     12.8710     4.3560    25.2500 H     1 LIG   0.0000 
 54 H121    14.5480     5.2610    23.9350 H     1 LIG   0.0000 
 55 H122    14.1630     3.8390    23.2300 H     1 LIG   0.0000 
 56 H24     10.6450     1.6850    22.3540 H     1 LIG   0.0000 
 57 H251     9.3350     2.0300    24.2420 H     1 LIG   0.0000 
 58 H252    10.1850     0.9200    25.0860 H     1 LIG   0.0000 
 59 H281     8.0850     0.0300    24.3350 H     1 LIG   0.0000 
 60 H282     8.5570     0.2730    22.7910 H     1 LIG   0.0000 
 61 H31      9.9210    -1.4290    24.6810 H     1 LIG   0.0000 
 62 H611    11.4480    -1.9970    23.0960 H     1 LIG   0.0000 
 63 H612    10.5600    -1.3400    21.8940 H     1 LIG   0.0000 
 64 H671    14.6010    -1.3760    22.9770 H     1 LIG   0.0000 
 65 H672    13.1440    -2.1100    22.9040 H     1 LIG   0.0000 
 66 H61     12.7540     8.1080    26.7470 H     1 LIG   0.0000 
 67 H62     13.6250     7.6640    25.4390 H     1 LIG   0.0000 
 68 H9      12.4030     6.6060    23.8030 H     1 LIG   0.0000 
 69 H161    12.3680     3.9430    21.3740 H     1 LIG   0.0000 
 70 H162    12.4650     5.3560    20.3770 H     1 LIG   0.0000 
 71 H22     12.7760     1.9920    24.2220 H     1 LIG   0.0000 
 72 H431     3.9830    -6.4030    30.8920 H     1 LIG   0.0000 
 73 H432     3.8220    -5.2890    29.7090 H     1 LIG   0.0000 
 74 H49      4.0110    -8.2140    27.4280 H     1 LIG   0.0000 
@<TRIPOS>BOND
  1   1   2  1   
  2   1  49  1   
  3   1  50  1   
  4   1  51  1   
  5   2   3  1   
  6   2   4  1   
  7   2  52  1   
  8   3  66  1   
  9   3  67  1   
 10   4   5  1   
 11   4  68  1   
 12   5   6  1   
 13   5  10  1   
 14   5  53  1   
 15   6   7  1   
 16   6  54  1   
 17   6  55  1   
 18   7   8  am  
 19   7   9  2   
 20   8  69  1   
 21   8  70  1   
 22  10  11  2   
 23  10  12  am  
 24  12  13  1   
 25  12  71  1   
 26  13  14  1   
 27  13  38  1   
 28  13  56  1   
 29  14  15  1   
 30  14  57  1   
 31  14  58  1   
 32  15  16  1   
 33  15  59  1   
 34  15  60  1   
 35  16  17  1   
 36  16  37  1   
 37  16  61  1   
 38  17  18  2   
 39  17  36  1   
 40  18  19  1   
 41  19  20  ar  
 42  19  35  ar  
 43  20  21  1   
 44  20  32  ar  
 45  21  22  ar  
 46  21  31  ar  
 47  22  23  ar  
 48  22  46  1   
 49  23  24  ar  
 50  23  47  1   
 51  24  25  1   
 52  24  29  ar  
 53  25  26  am  
 54  25  27  2   
 55  25  28  2   
 56  26  72  1   
 57  26  73  1   
 58  29  30  1   
 59  29  31  ar  
 60  30  74  1   
 61  31  48  1   
 62  32  33  ar  
 63  32  43  1   
 64  33  34  ar  
 65  33  44  1   
 66  34  35  ar  
 67  34  45  1   
 68  35  36  1   
 69  37  38  1   
 70  37  62  1   
 71  37  63  1   
 72  38  39  am  
 73  39  40  2   
 74  39  41  1   
 75  41  42  1   
 76  41  64  1   
 77  41  65  1   
@<TRIPOS>SUBSTRUCTURE
  1 LIG  16 GROUP 4 **** **** 0
@<TRIPOS>PROPERTY_DATA
index	|	ligand165
Name	|	DAV-CRI-f9b-6
ChemPlp	|	-100.496
MM-GBSA Nwat=0	|	
STDEV0	|	
MM-GBSA Nwat=30	|	
STDEV30	|	
MM-GBSA Nwat=60	|	
STDEV60	|	
ST.DEV < 10%	|	
RMSD LIG < 2	|	
DIST < 5	|	
DIST < 3.5	|	N

# MOE 2019.01 (io_trps.svl 2018.10)

@<TRIPOS>MOLECULE
ligand227
53 55 1 0 0 
SMALL
NO_CHARGES


@<TRIPOS>ATOM
  1 C1       4.5730    -6.6020    22.3020 C.2   1 LIG   0.0000 
  2 H2       4.1800    -7.4110    22.7390 H     1 LIG   0.0000 
  3 H3       4.0490    -6.1020    21.6120 H     1 LIG   0.0000 
  4 C4       5.7650    -6.2000    22.6310 C.2   1 LIG   0.0000 
  5 H5       6.2880    -6.6990    23.3210 H     1 LIG   0.0000 
  6 C6       6.3620    -4.9700    21.9660 C.2   1 LIG   0.0000 
  7 O7       5.8320    -4.4920    21.0020 O.2   1 LIG   0.0000 
  8 N8       7.5320    -4.3960    22.4780 N.am  1 LIG   0.0000 
  9 C9       8.1660    -5.0000    23.6610 C.3   1 LIG   0.0000 
 10 H10      8.8440    -5.6700    23.3600 H     1 LIG   0.0000 
 11 H11      7.4650    -5.4580    24.2080 H     1 LIG   0.0000 
 12 C12      8.8550    -3.9500    24.5200 C.3   1 LIG   0.0000 
 13 H13      8.1600    -3.4300    25.0170 H     1 LIG   0.0000 
 14 H14      9.4580    -4.4100    25.1730 H     1 LIG   0.0000 
 15 N15      9.6540    -3.0220    23.7050 N.3   1 LIG   0.0000 
 16 C16     10.2390    -2.0400    24.6280 C.3   1 LIG   0.0000 
 17 H17     10.7020    -2.5180    25.3740 H     1 LIG   0.0000 
 18 H18      9.5150    -1.4610    25.0020 H     1 LIG   0.0000 
 19 C19     11.2430    -1.1770    23.8800 C.ar  1 LIG   0.0000 
 20 C20     12.1140    -1.7860    22.9830 C.ar  1 LIG   0.0000 
 21 H21     12.0780    -2.7740    22.8340 H     1 LIG   0.0000 
 22 C22     13.0360    -1.0030    22.2940 C.ar  1 LIG   0.0000 
 23 H23     13.6700    -1.4230    21.6460 H     1 LIG   0.0000 
 24 C24     13.0640     0.3700    22.5190 C.ar  1 LIG   0.0000 
 25 H25     13.7270     0.9300    22.0230 H     1 LIG   0.0000 
 26 C26     12.1940     0.9820    23.4150 C.ar  1 LIG   0.0000 
 27 C27     11.9520     2.2960    23.8780 C.2   1 LIG   0.0000 
 28 C28     12.7010     3.5410    23.4320 C.3   1 LIG   0.0000 
 29 H29     12.8300     3.5150    22.4410 H     1 LIG   0.0000 
 30 H30     13.5920     3.5730    23.8840 H     1 LIG   0.0000 
 31 C31     11.8980     4.7760    23.8070 C.3   1 LIG   0.0000 
 32 H32     11.7540     4.7920    24.7970 H     1 LIG   0.0000 
 33 H33     12.4000     5.5960    23.5300 H     1 LIG   0.0000 
 34 N34     10.5980     4.7430    23.1230 N.am  1 LIG   0.0000 
 35 H35     10.7070     5.0680    22.1840 H     1 LIG   0.0000 
 36 S36      9.5440     5.7040    23.9120 S.o2  1 LIG   0.0000 
 37 C37      8.5010     6.5680    22.7110 C.3   1 LIG   0.0000 
 38 H38      9.0750     7.1250    22.1100 H     1 LIG   0.0000 
 39 H39      7.9970     5.8990    22.1640 H     1 LIG   0.0000 
 40 H40      7.8540     7.1580    23.1950 H     1 LIG   0.0000 
 41 O41      8.7180     4.9020    24.7760 O.2   1 LIG   0.0000 
 42 O42     10.2690     6.6670    24.6990 O.2   1 LIG   0.0000 
 43 C43     10.9360     2.2710    24.7900 C.2   1 LIG   0.0000 
 44 H44     10.5580     3.0600    25.2740 H     1 LIG   0.0000 
 45 N45     10.5310     0.9750    24.9190 N.pl3 1 LIG   0.0000 
 46 H46      9.8020     0.6490    25.5210 H     1 LIG   0.0000 
 47 C47     11.2880     0.1960    24.0900 C.ar  1 LIG   0.0000 
 48 C48      8.7590    -2.2780    22.8040 C.3   1 LIG   0.0000 
 49 H49      9.2950    -1.6000    22.3020 H     1 LIG   0.0000 
 50 H50      8.0620    -1.8140    23.3500 H     1 LIG   0.0000 
 51 C51      8.0730    -3.2030    21.8090 C.3   1 LIG   0.0000 
 52 H52      7.3250    -2.7080    21.3680 H     1 LIG   0.0000 
 53 H53      8.7370    -3.4890    21.1180 H     1 LIG   0.0000 
@<TRIPOS>BOND
  1   1   2  1   
  2   1   3  1   
  3   1   4  2   
  4   4   5  1   
  5   4   6  1   
  6   6   7  2   
  7   6   8  am  
  8   8   9  1   
  9   8  51  1   
 10   9  10  1   
 11   9  11  1   
 12   9  12  1   
 13  12  13  1   
 14  12  14  1   
 15  12  15  1   
 16  15  16  1   
 17  15  48  1   
 18  16  17  1   
 19  16  18  1   
 20  16  19  1   
 21  19  20  ar  
 22  19  47  ar  
 23  20  21  1   
 24  20  22  ar  
 25  22  23  1   
 26  22  24  ar  
 27  24  25  1   
 28  24  26  ar  
 29  26  27  1   
 30  26  47  ar  
 31  27  28  1   
 32  27  43  2   
 33  28  29  1   
 34  28  30  1   
 35  28  31  1   
 36  31  32  1   
 37  31  33  1   
 38  31  34  1   
 39  34  35  1   
 40  34  36  am  
 41  36  37  1   
 42  36  41  2   
 43  36  42  2   
 44  37  38  1   
 45  37  39  1   
 46  37  40  1   
 47  43  44  1   
 48  43  45  1   
 49  45  46  1   
 50  45  47  1   
 51  48  49  1   
 52  48  50  1   
 53  48  51  1   
 54  51  52  1   
 55  51  53  1   
@<TRIPOS>SUBSTRUCTURE
  1 LIG  47 GROUP 4 **** **** 0
@<TRIPOS>PROPERTY_DATA
index	|	ligand227
Name	|	JAN-GHE-641-7
ChemPlp	|	-94.3122
MM-GBSA Nwat=0	|	
STDEV0	|	
MM-GBSA Nwat=30	|	
STDEV30	|	
MM-GBSA Nwat=60	|	
STDEV60	|	
ST.DEV < 10%	|	
RMSD LIG < 2	|	
DIST < 5	|	
DIST < 3.5	|	N

# MOE 2019.01 (io_trps.svl 2018.10)

@<TRIPOS>MOLECULE
ligand241
54 56 1 0 0 
SMALL
NO_CHARGES


@<TRIPOS>ATOM
  1 C1      12.5170     7.9950    27.4250 C.2   1 LIG   0.0000 
  2 H2      13.3640     8.4900    27.6210 H     1 LIG   0.0000 
  3 H3      11.7260     8.0990    28.0280 H     1 LIG   0.0000 
  4 C4      12.4450     7.2160    26.3870 C.2   1 LIG   0.0000 
  5 H5      13.2360     7.1120    25.7840 H     1 LIG   0.0000 
  6 C6      11.1590     6.4630    26.0890 C.2   1 LIG   0.0000 
  7 O7      10.2050     6.5980    26.8060 O.2   1 LIG   0.0000 
  8 N8      11.0860     5.6130    24.9790 N.am  1 LIG   0.0000 
  9 C9      12.0100     5.2140    23.9210 C.3   1 LIG   0.0000 
 10 H10     12.9690     5.1410    24.1960 H     1 LIG   0.0000 
 11 H11     11.9450     5.7430    23.0750 H     1 LIG   0.0000 
 12 C12     11.2320     3.9160    23.9360 C.3   1 LIG   0.0000 
 13 H13     11.5450     3.2370    24.6000 H     1 LIG   0.0000 
 14 N14     11.0300     3.4130    22.5680 N.am  1 LIG   0.0000 
 15 H15     10.6510     4.1410    21.9980 H     1 LIG   0.0000 
 16 S16      9.9980     2.1530    22.6000 S.o2  1 LIG   0.0000 
 17 O17      9.1420     2.2040    21.4420 O.2   1 LIG   0.0000 
 18 O18      9.1950     2.2190    23.7930 O.2   1 LIG   0.0000 
 19 C19     10.8980     0.6640    22.5880 C.ar  1 LIG   0.0000 
 20 C20     12.2560     0.6700    22.8960 C.ar  1 LIG   0.0000 
 21 F21     12.8520     1.8200    23.1960 F     1 LIG   0.0000 
 22 C22     12.9920    -0.5100    22.8920 C.ar  1 LIG   0.0000 
 23 H23     13.9670    -0.4960    23.1140 H     1 LIG   0.0000 
 24 C24     12.3640    -1.7110    22.5760 C.ar  1 LIG   0.0000 
 25 H25     12.8870    -2.5630    22.5710 H     1 LIG   0.0000 
 26 C26     11.0070    -1.7260    22.2680 C.ar  1 LIG   0.0000 
 27 H27     10.5560    -2.5890    22.0420 H     1 LIG   0.0000 
 28 C28     10.2790    -0.5410    22.2750 C.ar  1 LIG   0.0000 
 29 O29      8.9620    -0.5560    21.9760 O.3   1 LIG   0.0000 
 30 C30      8.4370    -1.5700    21.1320 C.3   1 LIG   0.0000 
 31 H31      8.6780    -2.4680    21.5010 H     1 LIG   0.0000 
 32 H32      8.8210    -1.4730    20.2140 H     1 LIG   0.0000 
 33 C33      6.9240    -1.4400    21.0650 C.3   1 LIG   0.0000 
 34 H34      6.6820    -0.5300    20.7260 H     1 LIG   0.0000 
 35 H35      6.5370    -1.5700    21.9780 H     1 LIG   0.0000 
 36 C36      6.3660    -2.4950    20.1240 C.3   1 LIG   0.0000 
 37 H37      5.3680    -2.5070    20.1900 H     1 LIG   0.0000 
 38 H38      6.6350    -2.2800    19.1850 H     1 LIG   0.0000 
 39 N39      6.8980    -3.8140    20.4960 N.pl3 1 LIG   0.0000 
 40 H40      7.7200    -4.1660    20.0480 H     1 LIG   0.0000 
 41 C41      6.2540    -4.5770    21.4770 C.ar  1 LIG   0.0000 
 42 C42      6.8560    -5.7630    21.8850 C.ar  1 LIG   0.0000 
 43 H43      7.7240    -6.0570    21.4850 H     1 LIG   0.0000 
 44 C44      6.2290    -6.5330    22.8600 C.ar  1 LIG   0.0000 
 45 H45      6.6470    -7.3880    23.1660 H     1 LIG   0.0000 
 46 C46      5.0220    -6.1150    23.4110 C.ar  1 LIG   0.0000 
 47 C47      4.3450    -6.9630    24.4750 C.1   1 LIG   0.0000 
 48 N48      3.8380    -7.6000    25.2730 N.1   1 LIG   0.0000 
 49 C49      4.4730    -4.9190    22.9590 C.ar  1 LIG   0.0000 
 50 H50      3.6060    -4.5990    23.3410 H     1 LIG   0.0000 
 51 N51      5.0900    -4.1890    22.0190 N.ar  1 LIG   0.0000 
 52 C52     10.0660     4.7620    24.3800 C.3   1 LIG   0.0000 
 53 H53      9.5380     5.1820    23.6410 H     1 LIG   0.0000 
 54 H54      9.4420     4.3220    25.0260 H     1 LIG   0.0000 
@<TRIPOS>BOND
  1   1   2  1   
  2   1   3  1   
  3   1   4  2   
  4   4   5  1   
  5   4   6  1   
  6   6   7  2   
  7   6   8  am  
  8   8   9  1   
  9   8  52  1   
 10   9  10  1   
 11   9  11  1   
 12   9  12  1   
 13  12  13  1   
 14  12  14  1   
 15  12  52  1   
 16  14  15  1   
 17  14  16  am  
 18  16  17  2   
 19  16  18  2   
 20  16  19  1   
 21  19  20  ar  
 22  19  28  ar  
 23  20  21  1   
 24  20  22  ar  
 25  22  23  1   
 26  22  24  ar  
 27  24  25  1   
 28  24  26  ar  
 29  26  27  1   
 30  26  28  ar  
 31  28  29  1   
 32  29  30  1   
 33  30  31  1   
 34  30  32  1   
 35  30  33  1   
 36  33  34  1   
 37  33  35  1   
 38  33  36  1   
 39  36  37  1   
 40  36  38  1   
 41  36  39  1   
 42  39  40  1   
 43  39  41  1   
 44  41  42  ar  
 45  41  51  ar  
 46  42  43  1   
 47  42  44  ar  
 48  44  45  1   
 49  44  46  ar  
 50  46  47  1   
 51  46  49  ar  
 52  47  48  3   
 53  49  50  1   
 54  49  51  ar  
 55  52  53  1   
 56  52  54  1   
@<TRIPOS>SUBSTRUCTURE
  1 LIG  29 GROUP 4 **** **** 0
@<TRIPOS>PROPERTY_DATA
index	|	ligand241
Name	|	JAN-GHE-bf4-8
ChemPlp	|	-97.0393
MM-GBSA Nwat=0	|	
STDEV0	|	
MM-GBSA Nwat=30	|	
STDEV30	|	
MM-GBSA Nwat=60	|	
STDEV60	|	
ST.DEV < 10%	|	
RMSD LIG < 2	|	
DIST < 5	|	
DIST < 3.5	|	N

# MOE 2019.01 (io_trps.svl 2018.10)

@<TRIPOS>MOLECULE
ligand280
44 45 1 0 0 
SMALL
NO_CHARGES


@<TRIPOS>ATOM
  1 C1       6.4020    -6.6350    22.3360 C.2   1 LIG   0.0000 
  2 H2       6.0260    -7.5420    22.5260 H     1 LIG   0.0000 
  3 H3       7.1740    -6.2920    22.8710 H     1 LIG   0.0000 
  4 C4       5.8870    -5.9020    21.3940 C.2   1 LIG   0.0000 
  5 H5       5.1160    -6.2450    20.8580 H     1 LIG   0.0000 
  6 C6       6.4590    -4.5230    21.1060 C.2   1 LIG   0.0000 
  7 O7       5.9520    -3.8260    20.2710 O.2   1 LIG   0.0000 
  8 N8       7.5530    -4.0770    21.7990 N.am  1 LIG   0.0000 
  9 H9       7.9760    -4.6580    22.4940 H     1 LIG   0.0000 
 10 C10      8.1060    -2.7440    21.5200 C.3   1 LIG   0.0000 
 11 H11      7.3590    -2.1060    21.3310 H     1 LIG   0.0000 
 12 H12      8.7110    -2.7930    20.7260 H     1 LIG   0.0000 
 13 C13      8.8930    -2.2590    22.7270 C.2   1 LIG   0.0000 
 14 O14      9.6060    -3.0180    23.3220 O.2   1 LIG   0.0000 
 15 N15      8.7880    -0.9550    23.1350 N.am  1 LIG   0.0000 
 16 C16      9.5500    -0.4870    24.3020 C.3   1 LIG   0.0000 
 17 H17      9.5490    -1.1960    25.0060 H     1 LIG   0.0000 
 18 H18      9.1260     0.3430    24.6640 H     1 LIG   0.0000 
 19 C19     10.9810    -0.1860    23.8860 C.ar  1 LIG   0.0000 
 20 C20     11.5970    -0.9720    22.9180 C.ar  1 LIG   0.0000 
 21 H21     11.1020    -1.7320    22.4960 H     1 LIG   0.0000 
 22 C22     12.9070    -0.6940    22.5410 C.ar  1 LIG   0.0000 
 23 H23     13.3570    -1.2550    21.8470 H     1 LIG   0.0000 
 24 C24     13.5900     0.3650    23.1300 C.ar  1 LIG   0.0000 
 25 H25     14.5310     0.5650    22.8590 H     1 LIG   0.0000 
 26 C26     12.9640     1.1440    24.0950 C.ar  1 LIG   0.0000 
 27 H27     13.4590     1.9040    24.5160 H     1 LIG   0.0000 
 28 C28     11.6550     0.8760    24.4810 C.ar  1 LIG   0.0000 
 29 H29     11.2050     1.4370    25.1760 H     1 LIG   0.0000 
 30 C30      7.9150    -0.0250    22.4050 C.3   1 LIG   0.0000 
 31 H31      7.8550     0.8380    22.9060 H     1 LIG   0.0000 
 32 H32      7.0020    -0.4240    22.3180 H     1 LIG   0.0000 
 33 C33      8.4910     0.2310    21.0220 C.3   1 LIG   0.0000 
 34 O34      9.4530     1.2730    21.0940 O.3   1 LIG   0.0000 
 35 H35      9.3770     1.7360    21.9780 H     1 LIG   0.0000 
 36 C36      7.3720     0.6390    20.0740 C.2   1 LIG   0.0000 
 37 C37      7.2820     0.3670    18.7440 C.2   1 LIG   0.0000 
 38 H38      7.9750    -0.1460    18.2380 H     1 LIG   0.0000 
 39 C39      6.1000     0.8870    18.1480 C.2   1 LIG   0.0000 
 40 H40      5.9000     0.7590    17.1760 H     1 LIG   0.0000 
 41 C41      5.2530     1.5680    18.9700 C.2   1 LIG   0.0000 
 42 H42      4.3840     1.9960    18.7250 H     1 LIG   0.0000 
 43 S43      5.9920     1.5360    20.5040 S.3   1 LIG   0.0000 
 44 H44      8.9270    -0.6030    20.6830 H     1 LIG   0.0000 
@<TRIPOS>BOND
  1   1   2  1   
  2   1   3  1   
  3   1   4  2   
  4   4   5  1   
  5   4   6  1   
  6   6   7  2   
  7   6   8  am  
  8   8   9  1   
  9   8  10  1   
 10  10  11  1   
 11  10  12  1   
 12  10  13  1   
 13  13  14  2   
 14  13  15  am  
 15  15  16  1   
 16  15  30  1   
 17  16  17  1   
 18  16  18  1   
 19  16  19  1   
 20  19  20  ar  
 21  19  28  ar  
 22  20  21  1   
 23  20  22  ar  
 24  22  23  1   
 25  22  24  ar  
 26  24  25  1   
 27  24  26  ar  
 28  26  27  1   
 29  26  28  ar  
 30  28  29  1   
 31  30  31  1   
 32  30  32  1   
 33  30  33  1   
 34  33  34  1   
 35  33  36  1   
 36  33  44  1   
 37  34  35  1   
 38  36  37  2   
 39  36  43  1   
 40  37  38  1   
 41  37  39  1   
 42  39  40  1   
 43  39  41  2   
 44  41  42  1   
 45  41  43  1   
@<TRIPOS>SUBSTRUCTURE
  1 LIG  15 GROUP 4 **** **** 0
@<TRIPOS>PROPERTY_DATA
index	|	ligand280
Name	|	JUA-UNI-bc0-1
ChemPlp	|	-93.4204
MM-GBSA Nwat=0	|	
STDEV0	|	
MM-GBSA Nwat=30	|	
STDEV30	|	
MM-GBSA Nwat=60	|	
STDEV60	|	
ST.DEV < 10%	|	
RMSD LIG < 2	|	
DIST < 5	|	
DIST < 3.5	|	N

# MOE 2019.01 (io_trps.svl 2018.10)

@<TRIPOS>MOLECULE
ligand491
56 59 1 0 0 
SMALL
NO_CHARGES


@<TRIPOS>ATOM
  1 C1       1.8950    -7.4970    30.3860 C.1   1 LIG   0.0000 
  2 H2       1.0480    -7.8490    30.7830 H     1 LIG   0.0000 
  3 C3       2.9040    -7.0780    29.9130 C.1   1 LIG   0.0000 
  4 C4       4.1930    -6.5430    29.3080 C.ar  1 LIG   0.0000 
  5 C5       4.8880    -5.5280    29.9560 C.ar  1 LIG   0.0000 
  6 H6       4.5400    -5.1530    30.8150 H     1 LIG   0.0000 
  7 C7       6.0690    -5.0320    29.4110 C.ar  1 LIG   0.0000 
  8 H8       6.5740    -4.3020    29.8710 H     1 LIG   0.0000 
  9 C9       6.5340    -5.5700    28.2150 C.ar  1 LIG   0.0000 
 10 N10      7.7220    -5.0600    27.6800 N.pl3 1 LIG   0.0000 
 11 H11      8.4420    -4.7260    28.2890 H     1 LIG   0.0000 
 12 C12      7.9020    -5.0170    26.3020 C.2   1 LIG   0.0000 
 13 C13      9.0960    -4.5700    25.8180 C.2   1 LIG   0.0000 
 14 H14      9.8910    -4.2610    26.3400 H     1 LIG   0.0000 
 15 S15      8.9290    -4.6580    24.1250 S.3   1 LIG   0.0000 
 16 C16      7.3430    -5.2620    24.0580 C.2   1 LIG   0.0000 
 17 C17      6.5540    -5.5810    22.7970 C.3   1 LIG   0.0000 
 18 H18      6.8980    -6.4290    22.3940 H     1 LIG   0.0000 
 19 H19      5.5870    -5.6900    23.0270 H     1 LIG   0.0000 
 20 S20      6.7430    -4.2290    21.6090 S.o2  1 LIG   0.0000 
 21 N21      8.2040    -4.1710    21.1250 N.2   1 LIG   0.0000 
 22 H22      8.6620    -3.2880    21.0210 H     1 LIG   0.0000 
 23 O23      5.8730    -4.4530    20.4840 O.2   1 LIG   0.0000 
 24 C24      6.3090    -2.6620    22.4040 C.3   1 LIG   0.0000 
 25 H25      6.8620    -2.5420    23.2280 H     1 LIG   0.0000 
 26 H26      5.3400    -2.6710    22.6520 H     1 LIG   0.0000 
 27 C27      6.5760    -1.5140    21.4430 C.ar  1 LIG   0.0000 
 28 C28      5.7930    -1.4220    20.2980 C.ar  1 LIG   0.0000 
 29 H29      5.0820    -2.1040    20.1260 H     1 LIG   0.0000 
 30 C30      5.9910    -0.3860    19.3900 C.ar  1 LIG   0.0000 
 31 H31      5.4180    -0.3280    18.5730 H     1 LIG   0.0000 
 32 C32      6.9780     0.5690    19.6060 C.ar  1 LIG   0.0000 
 33 H33      7.1190     1.3180    18.9580 H     1 LIG   0.0000 
 34 C34      7.7620     0.4570    20.7440 C.ar  1 LIG   0.0000 
 35 C35      7.5670    -0.5620    21.6710 C.ar  1 LIG   0.0000 
 36 C36      8.4580    -0.5890    22.9020 C.3   1 LIG   0.0000 
 37 H37      8.0840     0.0280    23.5940 H     1 LIG   0.0000 
 38 H38      8.4880    -1.5200    23.2670 H     1 LIG   0.0000 
 39 N39      9.8200    -0.1610    22.5560 N.am  1 LIG   0.0000 
 40 C40     10.8720    -0.6200    23.3580 C.2   1 LIG   0.0000 
 41 O41     10.6450    -1.3390    24.2920 O.2   1 LIG   0.0000 
 42 C42     12.3010    -0.2090    23.0460 C.3   1 LIG   0.0000 
 43 H43     12.2990     0.6760    22.5790 H     1 LIG   0.0000 
 44 H44     12.8200    -0.1350    23.8980 H     1 LIG   0.0000 
 45 CL45    13.0560    -1.4320    21.9960 Cl    1 LIG   0.0000 
 46 C46     10.0790     0.7200    21.4040 C.3   1 LIG   0.0000 
 47 H47     10.4040     0.1580    20.6430 H     1 LIG   0.0000 
 48 H48     10.7880     1.3770    21.6610 H     1 LIG   0.0000 
 49 C49      8.8550     1.4920    20.9410 C.3   1 LIG   0.0000 
 50 H50      8.5820     2.1590    21.6340 H     1 LIG   0.0000 
 51 H51      9.0460     1.9640    20.0800 H     1 LIG   0.0000 
 52 C52      6.9220    -5.3980    25.3500 C.2   1 LIG   0.0000 
 53 H53      6.0130    -5.7320    25.6000 H     1 LIG   0.0000 
 54 N54      5.8500    -6.5490    27.6040 N.ar  1 LIG   0.0000 
 55 C55      4.7110    -7.0380    28.1150 C.ar  1 LIG   0.0000 
 56 H56      4.2280    -7.7680    27.6330 H     1 LIG   0.0000 
@<TRIPOS>BOND
  1   1   2  1   
  2   1   3  3   
  3   3   4  1   
  4   4   5  ar  
  5   4  55  ar  
  6   5   6  1   
  7   5   7  ar  
  8   7   8  1   
  9   7   9  ar  
 10   9  10  1   
 11   9  54  ar  
 12  10  11  1   
 13  10  12  1   
 14  12  13  2   
 15  12  52  1   
 16  13  14  1   
 17  13  15  1   
 18  15  16  1   
 19  16  17  1   
 20  16  52  2   
 21  17  18  1   
 22  17  19  1   
 23  17  20  1   
 24  20  21  2   
 25  20  23  2   
 26  20  24  1   
 27  21  22  1   
 28  24  25  1   
 29  24  26  1   
 30  24  27  1   
 31  27  28  ar  
 32  27  35  ar  
 33  28  29  1   
 34  28  30  ar  
 35  30  31  1   
 36  30  32  ar  
 37  32  33  1   
 38  32  34  ar  
 39  34  35  ar  
 40  34  49  1   
 41  35  36  1   
 42  36  37  1   
 43  36  38  1   
 44  36  39  1   
 45  39  40  am  
 46  39  46  1   
 47  40  41  2   
 48  40  42  1   
 49  42  43  1   
 50  42  44  1   
 51  42  45  1   
 52  46  47  1   
 53  46  48  1   
 54  46  49  1   
 55  49  50  1   
 56  49  51  1   
 57  52  53  1   
 58  54  55  ar  
 59  55  56  1   
@<TRIPOS>SUBSTRUCTURE
  1 LIG  16 GROUP 4 **** **** 0
@<TRIPOS>PROPERTY_DATA
index	|	ligand491
Name	|	NIY-UNK-626-2
ChemPlp	|	-96.0443
MM-GBSA Nwat=0	|	
STDEV0	|	
MM-GBSA Nwat=30	|	
STDEV30	|	
MM-GBSA Nwat=60	|	
STDEV60	|	
ST.DEV < 10%	|	
RMSD LIG < 2	|	
DIST < 5	|	
DIST < 3.5	|	N

# MOE 2019.01 (io_trps.svl 2018.10)

@<TRIPOS>MOLECULE
ligand544
54 56 1 0 0 
SMALL
NO_CHARGES


@<TRIPOS>ATOM
  1 C1       5.2640    -6.2380    23.5760 C.2   1 LIG   0.0000 
  2 H2       4.9180    -6.9940    24.1320 H     1 LIG   0.0000 
  3 H3       4.9600    -5.3030    23.7610 H     1 LIG   0.0000 
  4 C4       6.1080    -6.4700    22.6150 C.2   1 LIG   0.0000 
  5 H5       6.4110    -7.4050    22.4310 H     1 LIG   0.0000 
  6 S6       6.7100    -5.1510    21.6480 S.o2  1 LIG   0.0000 
  7 O7       5.6370    -4.6040    20.8600 O.2   1 LIG   0.0000 
  8 O8       7.7500    -5.6320    20.7740 O.2   1 LIG   0.0000 
  9 N9       7.3620    -3.9000    22.7010 N.am  1 LIG   0.0000 
 10 C10      7.9580    -4.5040    23.9020 C.3   1 LIG   0.0000 
 11 H11      8.7090    -5.1060    23.6290 H     1 LIG   0.0000 
 12 H12      7.2620    -5.0360    24.3840 H     1 LIG   0.0000 
 13 C13      8.4940    -3.4230    24.8260 C.3   1 LIG   0.0000 
 14 H14      7.7360    -2.8480    25.1340 H     1 LIG   0.0000 
 15 H15      8.9280    -3.8520    25.6180 H     1 LIG   0.0000 
 16 N16      9.4810    -2.5880    24.1260 N.3   1 LIG   0.0000 
 17 C17     10.0400    -1.5500    25.0070 C.3   1 LIG   0.0000 
 18 C18     11.0820    -0.7460    24.2460 C.ar  1 LIG   0.0000 
 19 C19     11.8680    -1.3810    23.2910 C.ar  1 LIG   0.0000 
 20 H20     11.7540    -2.3570    23.1050 H     1 LIG   0.0000 
 21 C21     12.8180    -0.6360    22.6000 C.ar  1 LIG   0.0000 
 22 CL22    13.8340    -1.4320    21.3740 Cl    1 LIG   0.0000 
 23 C23     12.9880     0.7210    22.8500 C.ar  1 LIG   0.0000 
 24 H24     13.6730     1.2490    22.3480 H     1 LIG   0.0000 
 25 C25     12.1880     1.3320    23.8100 C.ar  1 LIG   0.0000 
 26 C26     12.3620     2.8150    24.0950 C.3   1 LIG   0.0000 
 27 H27     13.2310     2.9640    24.5670 H     1 LIG   0.0000 
 28 H28     11.6100     3.1350    24.6710 H     1 LIG   0.0000 
 29 C29     12.3600     3.5860    22.7850 C.3   1 LIG   0.0000 
 30 H30     12.9500     3.1230    22.1240 H     1 LIG   0.0000 
 31 H31     11.4270     3.6300    22.4260 H     1 LIG   0.0000 
 32 S32     12.9750     5.2640    23.0710 S.o2  1 LIG   0.0000 
 33 N33     14.5080     5.1940    23.6210 N.am  1 LIG   0.0000 
 34 H34     14.6430     5.8950    24.3210 H     1 LIG   0.0000 
 35 H35     14.6790     4.2910    24.0160 H     1 LIG   0.0000 
 36 O36     12.9410     6.0050    21.8370 O.2   1 LIG   0.0000 
 37 O37     12.1440     5.9200    24.0470 O.2   1 LIG   0.0000 
 38 C38     11.2300     0.6100    24.5150 C.ar  1 LIG   0.0000 
 39 H39     10.6600     1.0580    25.2040 H     1 LIG   0.0000 
 40 C40      8.9250    -0.6240    25.4720 C.2   1 LIG   0.0000 
 41 C41      8.3000    -0.6340    26.6800 C.2   1 LIG   0.0000 
 42 H42      8.5190    -1.2830    27.4090 H     1 LIG   0.0000 
 43 C43      7.3020     0.3720    26.7990 C.2   1 LIG   0.0000 
 44 H44      6.7640     0.4840    27.6350 H     1 LIG   0.0000 
 45 C45      7.1170     1.1760    25.7140 C.2   1 LIG   0.0000 
 46 H46      6.4670     1.9300    25.6220 H     1 LIG   0.0000 
 47 S47      8.2290     0.6240    24.5490 S.3   1 LIG   0.0000 
 48 C48      8.8880    -1.9880    22.9210 C.3   1 LIG   0.0000 
 49 H49      9.5870    -1.4600    22.4380 H     1 LIG   0.0000 
 50 H50      8.1390    -1.3830    23.1900 H     1 LIG   0.0000 
 51 C51      8.3520    -3.0710    21.9980 C.3   1 LIG   0.0000 
 52 H52      7.9190    -2.6420    21.2050 H     1 LIG   0.0000 
 53 H53      9.1080    -3.6490    21.6930 H     1 LIG   0.0000 
 54 H54     10.4680    -1.9820    25.8010 H     1 LIG   0.0000 
@<TRIPOS>BOND
  1   1   2  1   
  2   1   3  1   
  3   1   4  2   
  4   4   5  1   
  5   4   6  1   
  6   6   7  2   
  7   6   8  2   
  8   6   9  am  
  9   9  10  1   
 10   9  51  1   
 11  10  11  1   
 12  10  12  1   
 13  10  13  1   
 14  13  14  1   
 15  13  15  1   
 16  13  16  1   
 17  16  17  1   
 18  16  48  1   
 19  17  18  1   
 20  17  40  1   
 21  17  54  1   
 22  18  19  ar  
 23  18  38  ar  
 24  19  20  1   
 25  19  21  ar  
 26  21  22  1   
 27  21  23  ar  
 28  23  24  1   
 29  23  25  ar  
 30  25  26  1   
 31  25  38  ar  
 32  26  27  1   
 33  26  28  1   
 34  26  29  1   
 35  29  30  1   
 36  29  31  1   
 37  29  32  1   
 38  32  33  am  
 39  32  36  2   
 40  32  37  2   
 41  33  34  1   
 42  33  35  1   
 43  38  39  1   
 44  40  41  2   
 45  40  47  1   
 46  41  42  1   
 47  41  43  1   
 48  43  44  1   
 49  43  45  2   
 50  45  46  1   
 51  45  47  1   
 52  48  49  1   
 53  48  50  1   
 54  48  51  1   
 55  51  52  1   
 56  51  53  1   
@<TRIPOS>SUBSTRUCTURE
  1 LIG  18 GROUP 4 **** **** 0
@<TRIPOS>PROPERTY_DATA
index	|	ligand544
Name	|	SEA-TRI-6cb-1
ChemPlp	|	-95.2608
MM-GBSA Nwat=0	|	
STDEV0	|	
MM-GBSA Nwat=30	|	
STDEV30	|	
MM-GBSA Nwat=60	|	
STDEV60	|	
ST.DEV < 10%	|	
RMSD LIG < 2	|	
DIST < 5	|	
DIST < 3.5	|	N

# MOE 2019.01 (io_trps.svl 2018.10)

@<TRIPOS>MOLECULE
ligand586
56 58 1 0 0 
SMALL
NO_CHARGES


@<TRIPOS>ATOM
  1 C1       6.6080    -5.9970    21.3590 C.2   1 LIG   0.0000 
  2 H2       7.0470    -6.7750    21.8090 H     1 LIG   0.0000 
  3 H3       5.7930    -6.1390    20.7980 H     1 LIG   0.0000 
  4 C4       7.0960    -4.8010    21.5050 C.2   1 LIG   0.0000 
  5 H5       7.9110    -4.6590    22.0670 H     1 LIG   0.0000 
  6 C6       6.4280    -3.6190    20.8220 C.2   1 LIG   0.0000 
  7 O7       5.5000    -3.7990    20.0830 O.2   1 LIG   0.0000 
  8 N8       6.8960    -2.3220    21.0540 N.am  1 LIG   0.0000 
  9 C9       6.2340    -1.1920    20.3820 C.3   1 LIG   0.0000 
 10 H10      5.5090    -0.8410    20.9740 H     1 LIG   0.0000 
 11 H11      5.8360    -1.5130    19.5220 H     1 LIG   0.0000 
 12 C12      7.2160    -0.0690    20.0830 C.3   1 LIG   0.0000 
 13 H13      7.7920    -0.3380    19.3110 H     1 LIG   0.0000 
 14 H14      6.7030     0.7560    19.8440 H     1 LIG   0.0000 
 15 N15      8.0750     0.2230    21.2410 N.3   1 LIG   0.0000 
 16 C16      8.9980     1.2880    20.8300 C.3   1 LIG   0.0000 
 17 H17      8.4760     2.1050    20.5840 H     1 LIG   0.0000 
 18 H18      9.5300     0.9820    20.0400 H     1 LIG   0.0000 
 19 C19      9.9390     1.6150    21.9780 C.ar  1 LIG   0.0000 
 20 C20     11.1570     0.9480    22.0500 C.ar  1 LIG   0.0000 
 21 H21     11.4020     0.2690    21.3580 H     1 LIG   0.0000 
 22 C22     12.0330     1.2320    23.0940 C.ar  1 LIG   0.0000 
 23 CL23    13.5930     0.3800    23.1900 Cl    1 LIG   0.0000 
 24 C24     11.7080     2.1740    24.0650 C.ar  1 LIG   0.0000 
 25 H25     12.3440     2.3730    24.8110 H     1 LIG   0.0000 
 26 C26     10.4880     2.8350    23.9820 C.ar  1 LIG   0.0000 
 27 H27     10.2430     3.5140    24.6740 H     1 LIG   0.0000 
 28 C28      9.6040     2.5590    22.9440 C.ar  1 LIG   0.0000 
 29 C29      8.2820     3.3080    22.8970 C.3   1 LIG   0.0000 
 30 H30      7.6040     2.7560    22.4120 H     1 LIG   0.0000 
 31 H31      7.9650     3.4820    23.8290 H     1 LIG   0.0000 
 32 N32      8.4670     4.5860    22.1960 N.am  1 LIG   0.0000 
 33 H33      9.3530     4.5860    21.7320 H     1 LIG   0.0000 
 34 S34      8.4170     5.8090    23.2720 S.o2  1 LIG   0.0000 
 35 O35      7.6910     5.3890    24.4420 O.2   1 LIG   0.0000 
 36 O36      9.7590     6.1750    23.6460 O.2   1 LIG   0.0000 
 37 N37      7.6110     7.1970    22.5470 N.am  1 LIG   0.0000 
 38 C38      6.7760     6.8070    21.4010 C.3   1 LIG   0.0000 
 39 H39      6.0770     6.1620    21.7080 H     1 LIG   0.0000 
 40 H40      7.3510     6.3720    20.7080 H     1 LIG   0.0000 
 41 C41      6.0990     8.0270    20.7940 C.3   1 LIG   0.0000 
 42 H42      6.7970     8.6500    20.4430 H     1 LIG   0.0000 
 43 H43      5.5040     7.7360    20.0460 H     1 LIG   0.0000 
 44 O44      5.3230     8.6980    21.7760 O.3   1 LIG   0.0000 
 45 C45      6.1000     9.1040    22.8940 C.3   1 LIG   0.0000 
 46 H46      5.5060     9.5440    23.5670 H     1 LIG   0.0000 
 47 H47      6.7990     9.7520    22.5910 H     1 LIG   0.0000 
 48 C48      6.7750     7.9000    23.5310 C.3   1 LIG   0.0000 
 49 H49      7.3490     8.2080    24.2900 H     1 LIG   0.0000 
 50 H50      6.0750     7.2740    23.8760 H     1 LIG   0.0000 
 51 C51      8.8980    -0.9600    21.5410 C.3   1 LIG   0.0000 
 52 H52      9.5290    -0.7370    22.2840 H     1 LIG   0.0000 
 53 H53      9.4180    -1.2090    20.7250 H     1 LIG   0.0000 
 54 C54      8.0410    -2.1450    21.9610 C.3   1 LIG   0.0000 
 55 H55      8.6000    -2.9740    21.9450 H     1 LIG   0.0000 
 56 H56      7.7020    -1.9900    22.8890 H     1 LIG   0.0000 
@<TRIPOS>BOND
  1   1   2  1   
  2   1   3  1   
  3   1   4  2   
  4   4   5  1   
  5   4   6  1   
  6   6   7  2   
  7   6   8  am  
  8   8   9  1   
  9   8  54  1   
 10   9  10  1   
 11   9  11  1   
 12   9  12  1   
 13  12  13  1   
 14  12  14  1   
 15  12  15  1   
 16  15  16  1   
 17  15  51  1   
 18  16  17  1   
 19  16  18  1   
 20  16  19  1   
 21  19  20  ar  
 22  19  28  ar  
 23  20  21  1   
 24  20  22  ar  
 25  22  23  1   
 26  22  24  ar  
 27  24  25  1   
 28  24  26  ar  
 29  26  27  1   
 30  26  28  ar  
 31  28  29  1   
 32  29  30  1   
 33  29  31  1   
 34  29  32  1   
 35  32  33  1   
 36  32  34  am  
 37  34  35  2   
 38  34  36  2   
 39  34  37  am  
 40  37  38  1   
 41  37  48  1   
 42  38  39  1   
 43  38  40  1   
 44  38  41  1   
 45  41  42  1   
 46  41  43  1   
 47  41  44  1   
 48  44  45  1   
 49  45  46  1   
 50  45  47  1   
 51  45  48  1   
 52  48  49  1   
 53  48  50  1   
 54  51  52  1   
 55  51  53  1   
 56  51  54  1   
 57  54  55  1   
 58  54  56  1   
@<TRIPOS>SUBSTRUCTURE
  1 LIG  29 GROUP 4 **** **** 0
@<TRIPOS>PROPERTY_DATA
index	|	ligand586
Name	|	STU-CHA-128-2
ChemPlp	|	-101.168
MM-GBSA Nwat=0	|	
STDEV0	|	
MM-GBSA Nwat=30	|	
STDEV30	|	
MM-GBSA Nwat=60	|	
STDEV60	|	
ST.DEV < 10%	|	
RMSD LIG < 2	|	
DIST < 5	|	
DIST < 3.5	|	N

# MOE 2019.01 (io_trps.svl 2018.10)

@<TRIPOS>MOLECULE
ligand592
55 57 1 0 0 
SMALL
NO_CHARGES


@<TRIPOS>ATOM
  1 O1       5.4330    -4.4690    20.5800 O.2   1 LIG   0.0000 
  2 C2       6.4990    -4.2830    21.0980 C.2   1 LIG   0.0000 
  3 C3       7.3450    -5.4640    21.5450 C.3   1 LIG   0.0000 
  4 H4       7.6490    -5.9780    20.7430 H     1 LIG   0.0000 
  5 H5       8.1420    -5.1320    22.0490 H     1 LIG   0.0000 
  6 CL6      6.3760    -6.5240    22.5960 Cl    1 LIG   0.0000 
  7 N7       6.9640    -2.9780    21.2920 N.am  1 LIG   0.0000 
  8 C8       6.1280    -1.8490    20.8520 C.3   1 LIG   0.0000 
  9 H9       5.5460    -1.5590    21.6120 H     1 LIG   0.0000 
 10 H10      5.5550    -2.1470    20.0880 H     1 LIG   0.0000 
 11 C11      6.9770    -0.6690    20.4020 C.3   1 LIG   0.0000 
 12 H12      7.3700    -0.8750    19.5060 H     1 LIG   0.0000 
 13 H13      6.3960     0.1410    20.3320 H     1 LIG   0.0000 
 14 N14      8.0690    -0.3940    21.3500 N.3   1 LIG   0.0000 
 15 C15      8.8370     0.7310    20.8000 C.3   1 LIG   0.0000 
 16 H16      8.2160     1.4860    20.5880 H     1 LIG   0.0000 
 17 H17      9.3050     0.4390    19.9660 H     1 LIG   0.0000 
 18 C18      9.8640     1.1910    21.8220 C.ar  1 LIG   0.0000 
 19 C19     11.0840     0.5260    21.8840 C.ar  1 LIG   0.0000 
 20 H20     11.2750    -0.2360    21.2660 H     1 LIG   0.0000 
 21 C21     12.0370     0.9310    22.8130 C.ar  1 LIG   0.0000 
 22 CL22    13.6000     0.0830    22.8960 Cl    1 LIG   0.0000 
 23 C23     11.7890     1.9900    23.6800 C.ar  1 LIG   0.0000 
 24 H24     12.4800     2.2760    24.3440 H     1 LIG   0.0000 
 25 C25     10.5650     2.6470    23.6090 C.ar  1 LIG   0.0000 
 26 H26     10.3750     3.4100    24.2270 H     1 LIG   0.0000 
 27 C27      9.6040     2.2510    22.6850 C.ar  1 LIG   0.0000 
 28 C28      8.2820     3.0010    22.6460 C.3   1 LIG   0.0000 
 29 H29      7.6130     2.4700    22.1240 H     1 LIG   0.0000 
 30 H30      7.9470     3.1340    23.5790 H     1 LIG   0.0000 
 31 N31      8.4780     4.3080    22.0040 N.am  1 LIG   0.0000 
 32 H32      9.3400     4.3040    21.4970 H     1 LIG   0.0000 
 33 S33      8.5240     5.4720    23.1440 S.o2  1 LIG   0.0000 
 34 O34      7.8120     5.0260    24.3140 O.2   1 LIG   0.0000 
 35 O35      9.8940     5.7490    23.4920 O.2   1 LIG   0.0000 
 36 N36      7.7690     6.9360    22.5200 N.am  1 LIG   0.0000 
 37 C37      6.8610     6.6480    21.3990 C.3   1 LIG   0.0000 
 38 H38      6.1400     6.0300    21.7110 H     1 LIG   0.0000 
 39 H39      7.3780     6.2130    20.6610 H     1 LIG   0.0000 
 40 C40      6.2310     7.9310    20.8800 C.3   1 LIG   0.0000 
 41 H41      6.9480     8.5300    20.5230 H     1 LIG   0.0000 
 42 H42      5.5870     7.7090    20.1480 H     1 LIG   0.0000 
 43 O43      5.5410     8.5990    21.9270 O.3   1 LIG   0.0000 
 44 C44      6.3900     8.9070    23.0220 C.3   1 LIG   0.0000 
 45 H45      5.8540     9.3490    23.7420 H     1 LIG   0.0000 
 46 H46      7.1120     9.5280    22.7160 H     1 LIG   0.0000 
 47 C47      7.0210     7.6390    23.5730 C.3   1 LIG   0.0000 
 48 H48      7.6460     7.8780    24.3170 H     1 LIG   0.0000 
 49 H49      6.3020     7.0380    23.9230 H     1 LIG   0.0000 
 50 C50      8.9770    -1.5510    21.3880 C.3   1 LIG   0.0000 
 51 H51      9.7540    -1.3340    21.9800 H     1 LIG   0.0000 
 52 H52      9.3050    -1.7370    20.4620 H     1 LIG   0.0000 
 53 C53      8.2790    -2.7930    21.9240 C.3   1 LIG   0.0000 
 54 H54      8.8480    -3.5930    21.7350 H     1 LIG   0.0000 
 55 H55      8.1560    -2.6970    22.9110 H     1 LIG   0.0000 
@<TRIPOS>BOND
  1   1   2  2   
  2   2   3  1   
  3   2   7  am  
  4   3   4  1   
  5   3   5  1   
  6   3   6  1   
  7   7   8  1   
  8   7  53  1   
  9   8   9  1   
 10   8  10  1   
 11   8  11  1   
 12  11  12  1   
 13  11  13  1   
 14  11  14  1   
 15  14  15  1   
 16  14  50  1   
 17  15  16  1   
 18  15  17  1   
 19  15  18  1   
 20  18  19  ar  
 21  18  27  ar  
 22  19  20  1   
 23  19  21  ar  
 24  21  22  1   
 25  21  23  ar  
 26  23  24  1   
 27  23  25  ar  
 28  25  26  1   
 29  25  27  ar  
 30  27  28  1   
 31  28  29  1   
 32  28  30  1   
 33  28  31  1   
 34  31  32  1   
 35  31  33  am  
 36  33  34  2   
 37  33  35  2   
 38  33  36  am  
 39  36  37  1   
 40  36  47  1   
 41  37  38  1   
 42  37  39  1   
 43  37  40  1   
 44  40  41  1   
 45  40  42  1   
 46  40  43  1   
 47  43  44  1   
 48  44  45  1   
 49  44  46  1   
 50  44  47  1   
 51  47  48  1   
 52  47  49  1   
 53  50  51  1   
 54  50  52  1   
 55  50  53  1   
 56  53  54  1   
 57  53  55  1   
@<TRIPOS>SUBSTRUCTURE
  1 LIG  28 GROUP 4 **** **** 0
@<TRIPOS>PROPERTY_DATA
index	|	ligand592
Name	|	STU-CHA-6d5-1
ChemPlp	|	-100.19
MM-GBSA Nwat=0	|	
STDEV0	|	
MM-GBSA Nwat=30	|	
STDEV30	|	
MM-GBSA Nwat=60	|	
STDEV60	|	
ST.DEV < 10%	|	
RMSD LIG < 2	|	
DIST < 5	|	
DIST < 3.5	|	N

# MOE 2019.01 (io_trps.svl 2018.10)

